REMARK  11 active torsions:
REMARK  status: ('A' for Active; 'I' for Inactive)
REMARK    1  A    between atoms: N_6  and  O_10 
REMARK    2  A    between atoms: O_13  and  O_39 
REMARK    3  A    between atoms: C_15  and  C_20 
REMARK    4  A    between atoms: C_23  and  C_31 
REMARK    5  A    between atoms: C_24  and  C_29 
REMARK    6  A    between atoms: C_25  and  C_30 
REMARK    7  A    between atoms: C_29  and  C_37 
REMARK    8  A    between atoms: C_30  and  C_35 
REMARK    9  A    between atoms: C_31  and  C_36 
REMARK   10  A    between atoms: C_32  and  C_35 
REMARK   11  A    between atoms: C_33  and  C_37 
ROOT
HETATM    1  C   UNL     1       1.519  -1.692   0.000  1.00  0.00    -0.018 A 
HETATM    2  N   UNL     1       0.694  -1.692   0.000  1.00  0.00     0.000 N 
HETATM    3  C   UNL     1       3.168  -1.871   0.000  1.00  0.00    -0.036 A 
HETATM    4  O   UNL     1       0.277  -0.979   0.000  1.00  0.00     0.000 OA
HETATM    5  O   UNL     1       1.927  -0.979   0.000  1.00  0.00     0.000 OA
HETATM    6  C   UNL     1       1.927  -2.404   0.000  1.00  0.00     0.012 A 
HETATM    7  N   UNL     1       3.869  -2.104   0.000  1.00  0.00     0.000 N 
HETATM    8  C   UNL     1       2.752  -2.404   0.000  1.00  0.00     0.003 A 
HETATM    9  C   UNL     1       0.281  -2.413   0.000  1.00  0.00     0.019 A 
HETATM   10  C   UNL     1       4.581  -1.688   0.000  1.00  0.00    -0.018 A 
HETATM   11  C   UNL     1       4.581  -0.863   0.000  1.00  0.00     0.018 A 
HETATM   12  O   UNL     1       2.955  -1.074   0.000  1.00  0.00     0.000 OA
HETATM   13  H   UNL     1       0.757  -0.136   0.000  1.00  0.00     0.000 HD
HETATM   14  H   UNL     1       3.971  -3.083   0.000  1.00  0.00     0.004 HD
ENDROOT
BRANCH   9  15
HETATM   15  C   UNL     1      -0.544  -2.413   0.000  1.00  0.00     0.005 C 
BRANCH  15  16
HETATM   16  C   UNL     1      -0.948  -1.700   0.000  1.00  0.00     0.015 C 
BRANCH  16  17
HETATM   17  C   UNL     1      -1.660  -2.117   0.000  1.00  0.00    -0.004 A 
HETATM   18  C   UNL     1      -2.373  -1.704   0.000  1.00  0.00     0.005 A 
HETATM   19  N   UNL     1      -2.585  -0.904   0.000  1.00  0.00     0.000 N 
HETATM   20  C   UNL     1      -1.998  -0.325   0.000  1.00  0.00    -0.048 A 
HETATM   21  H   UNL     1      -3.535  -0.645   0.000  1.00  0.00     0.000 HD
HETATM   22  O   UNL     1      -1.201  -0.538   0.000  1.00  0.00     0.000 OA
HETATM   23  O   UNL     1      -0.585   0.258   0.000  1.00  0.00     0.000 OA
HETATM   24  C   UNL     1      -0.994   0.971   0.000  1.00  0.00     0.247 A 
HETATM   25  N   UNL     1      -0.406   1.550   0.000  1.00  0.00     0.106 N 
HETATM   26  C   UNL     1      -1.819   0.971   0.000  1.00  0.00     0.306 A 
HETATM   27  C   UNL     1      -0.994   2.138   0.000  1.00  0.00     0.284 A 
HETATM   28  O   UNL     1       0.419   1.546   0.000  1.00  0.00     0.000 OA
HETATM   29  C   UNL     1      -2.406   0.388   0.000  1.00  0.00     0.026 A 
HETATM   30  H   UNL     1       0.899   0.703   0.000  1.00  0.00     0.000 HD
BRANCH  27  31
HETATM   31  C   UNL     1      -1.710   1.733   0.000  1.00  0.00     0.048 C 
BRANCH  31  32
HETATM   32  C   UNL     1      -2.431   2.146   0.000  1.00  0.00     0.055 A 
HETATM   33  C   UNL     1      -3.144   1.733   0.000  1.00  0.00     0.227 A 
HETATM   34  C   UNL     1      -3.860   2.146   0.000  1.00  0.00     0.231 A 
HETATM   35  N   UNL     1      -4.581   1.738   0.000  1.00  0.00    -0.075 N 
HETATM   36  H   UNL     1      -5.460   2.255   0.000  1.00  0.00     0.277 HD
HETATM   37  H   UNL     1      -4.590   0.718   0.000  1.00  0.00     0.277 HD
ENDBRANCH  31  32
ENDBRANCH  27  31
ENDBRANCH  16  17
ENDBRANCH  15  16
ENDBRANCH   9  15
BRANCH  11  38
HETATM   38  C   UNL     1       3.865  -0.450   0.000  1.00  0.00     0.032 C 
BRANCH  38  39
HETATM   39  C   UNL     1       4.269   0.271   0.000  1.00  0.00     0.011 C 
BRANCH  39  40
HETATM   40  C   UNL     1       3.856   0.983   0.000  1.00  0.00     0.039 A 
HETATM   41  N   UNL     1       3.031   0.983   0.000  1.00  0.00     0.000 N 
HETATM   42  C   UNL     1       2.619   1.700   0.000  1.00  0.00     0.126 A 
HETATM   43  C   UNL     1       3.031   2.413   0.000  1.00  0.00     0.053 A 
HETATM   44  O   UNL     1       1.794   1.700   0.000  1.00  0.00    -0.226 OA
BRANCH  41  45
HETATM   45  O   UNL     1       2.619   0.271   0.000  1.00  0.00     0.000 OA
HETATM   46  H   UNL     1       1.649   0.272   0.000  1.00  0.00     0.000 HD
ENDBRANCH  41  45
ENDBRANCH  39  40
ENDBRANCH  38  39
ENDBRANCH  11  38
TORSDOF 11
