REMARK  6 active torsions:
REMARK  status: ('A' for Active; 'I' for Inactive)
REMARK    1  A    between atoms: S_1  and  C_8 
REMARK    2  A    between atoms: O_2  and  C_9 
REMARK    3  A    between atoms: N_5  and  CA_7 
REMARK    4  A    between atoms: C_6  and  CA_7 
REMARK    5  A    between atoms: C_6  and  C_8 
REMARK    6  A    between atoms: CA_7  and  C_9 
ROOT
HETATM    1  CA  UNL     1       1.235   0.491   0.436  1.00  0.00     0.315 C 
ENDROOT
BRANCH   1   2
HETATM    2  N   UNL     1       1.209   1.746  -0.316  1.00  0.00     0.093 N 
HETATM    3  H1  UNL     1       1.187   1.556  -1.317  1.00  0.00     0.314 HD
HETATM    4  H2  UNL     1       2.060   2.277  -0.137  1.00  0.00     0.314 HD
ENDBRANCH   1   2
BRANCH   1   5
HETATM    5  C   UNL     1      -0.015  -0.334   0.110  1.00  0.00     0.059 C 
BRANCH   5   6
HETATM    6  C   UNL     1      -1.305   0.386   0.491  1.00  0.00     0.111 C 
BRANCH   6   7
HETATM    7  S   UNL     1      -2.754  -0.643   0.094  1.00  0.00     0.010 S 
HETATM    8  O   UNL     1      -2.832  -0.734  -1.398  1.00  0.00    -0.258 OA
HETATM    9  C   UNL     1      -3.978   0.571   0.637  1.00  0.00     0.127 C 
ENDBRANCH   6   7
ENDBRANCH   5   6
ENDBRANCH   1   5
BRANCH   1  10
HETATM   10  C   UNL     1       2.496  -0.239   0.023  1.00  0.00     0.173 C 
HETATM   11  OXT UNL     1       3.297   0.136  -0.821  1.00  0.00    -0.648 OA
BRANCH  10  12
HETATM   12  O   UNL     1       2.647  -1.379   0.745  1.00  0.00    -0.775 OA
HETATM   13  H   UNL     1       3.465  -1.861   0.500  1.00  0.00     0.167 HD
ENDBRANCH  10  12
ENDBRANCH   1  10
TORSDOF 6
