REMARK  5 active torsions:
REMARK  status: ('A' for Active; 'I' for Inactive)
REMARK    1  A    between atoms: S_1  and  C_4 
REMARK    2  A    between atoms: S_2  and  C_5 
REMARK    3  A    between atoms: O_3  and  C_6 
REMARK    4  A    between atoms: C_4  and  C_5 
REMARK    5  A    between atoms: C_4  and  C_6 
ROOT
HETATM    1  C   UNL     1       0.053   0.061  -0.248  1.00  0.00     0.077 C 
ENDROOT
BRANCH   1   2
HETATM    2  S   UNL     1       0.076  -1.713   0.223  1.00  0.00    -0.174 SA
HETATM    3  H   UNL     1       0.094  -1.523   1.551  1.00  0.00     0.102 HD
ENDBRANCH   1   2
BRANCH   1   4
HETATM    4  C   UNL     1      -1.184   0.769   0.322  1.00  0.00     0.087 C 
BRANCH   4   5
HETATM    5  S   UNL     1      -2.754   0.060  -0.271  1.00  0.00    -0.181 SA
HETATM    6  H   UNL     1      -3.560   0.906   0.388  1.00  0.00     0.101 HD
ENDBRANCH   4   5
ENDBRANCH   1   4
BRANCH   1   7
HETATM    7  C   UNL     1       1.332   0.729   0.267  1.00  0.00     0.179 C 
BRANCH   7   8
HETATM    8  O   UNL     1       2.476   0.094  -0.293  1.00  0.00    -0.400 OA
HETATM    9  H   UNL     1       2.446  -0.842  -0.031  1.00  0.00     0.209 HD
ENDBRANCH   7   8
ENDBRANCH   1   7
TORSDOF 5
