REMARK  0 active torsions:
REMARK  status: ('A' for Active; 'I' for Inactive)
ROOT
HETATM    1 AL   UNL     1       0.000   0.000   0.000  1.00  0.00     0.000 Al
HETATM    2  O   UNL     2       2.829  -0.825   0.000  1.00  0.00     0.000 OA
HETATM    3  P   UNL     2       2.829   0.000   0.000  1.00  0.00     0.195 P 
HETATM    4  O   UNL     2       2.829   0.825   0.000  1.00  0.00    -0.195 OA
HETATM    5  O   UNL     2       3.654   0.000   0.000  1.00  0.00     0.000 OA
HETATM    6  O   UNL     2       2.004   0.000   0.000  1.00  0.00     0.000 OA
ENDROOT
TORSDOF 0
