
 OpenBabel04132421113D

 64 70  0  0  1  0  0  0  0  0999 V2000
   -3.9847    3.5605   -2.4709 O   0  0  0  0  0  0  0  0  0  0  0  0
   -3.7610    3.5310   -1.0583 C   0  0  0  0  0  0  0  0  0  0  0  0
   -2.6932    2.4320   -1.2196 C   0  0  2  0  0  0  0  0  0  0  0  0
   -2.9608    2.5997   -2.7430 C   0  0  1  0  0  0  0  0  0  0  0  0
   -3.5089    1.4382   -3.6052 C   0  0  0  0  0  0  0  0  0  0  0  0
   -3.5944    0.0675   -2.8918 C   0  0  1  0  0  0  0  0  0  0  0  0
   -3.9804    0.0314   -1.3598 C   0  0  2  0  0  0  0  0  0  0  0  0
   -2.9786    1.0079   -0.5774 C   0  0  2  0  0  0  0  0  0  0  0  0
   -3.0092    0.9675    1.0136 C   0  0  1  0  0  0  0  0  0  0  0  0
   -1.9966    0.0414    1.8109 C   0  0  2  0  0  0  0  0  0  0  0  0
   -0.5080    0.4486    1.5219 C   0  0  0  0  0  0  0  0  0  0  0  0
    0.3362   -0.6475    0.7966 C   0  0  1  0  0  0  0  0  0  0  0  0
   -0.4905   -1.4669   -0.1378 C   0  0  0  0  0  0  0  0  0  0  0  0
   -1.7823   -1.8075    0.1979 C   0  0  0  0  0  0  0  0  0  0  0  0
   -2.2778   -1.5110    1.5908 C   0  0  0  0  0  0  0  0  0  0  0  0
   -3.9283   -1.4305   -0.9995 C   0  0  0  0  0  0  0  0  0  0  0  0
   -2.7325   -2.2867   -0.8284 C   0  0  2  0  0  0  0  0  0  0  0  0
   -1.5436    3.0077   -0.8039 O   0  0  0  0  0  0  0  0  0  0  0  0
   -0.3240    2.8752   -1.0267 C   0  0  0  0  0  0  0  0  0  0  0  0
    0.4140    3.5729   -0.3514 O   0  0  0  0  0  0  0  0  0  0  0  0
   -4.3700   -0.7636   -3.7540 O   0  0  0  0  0  0  0  0  0  0  0  0
   -5.4308    0.6085   -1.1687 C   0  0  0  0  0  0  0  0  0  0  0  0
   -3.1294    2.1772    1.6073 O   0  0  0  0  0  0  0  0  0  0  0  0
   -3.9828    2.6876    2.3831 C   0  0  0  0  0  0  0  0  0  0  0  0
   -4.9712    2.0127    2.6720 O   0  0  0  0  0  0  0  0  0  0  0  0
   -2.1011    0.3735    3.2017 O   0  0  0  0  0  0  0  0  0  0  0  0
    1.4860   -0.0761    0.3689 O   0  0  0  0  0  0  0  0  0  0  0  0
    2.6808   -0.3625    0.6037 C   0  0  0  0  0  0  0  0  0  0  0  0
    2.9871   -1.1060    1.5315 O   0  0  0  0  0  0  0  0  0  0  0  0
    0.1769   -1.8512   -1.3865 C   0  0  0  0  0  0  0  0  0  0  0  0
   -1.6307   -2.5177    2.5870 C   0  0  0  0  0  0  0  0  0  0  0  0
   -3.6666   -1.9658    2.1395 C   0  0  0  0  0  0  0  0  0  0  0  0
   -4.9577   -2.0876   -0.8430 O   0  0  0  0  0  0  0  0  0  0  0  0
   -2.9509   -3.5907   -0.5583 O   0  0  0  0  0  0  0  0  0  0  0  0
   -2.7282   -4.6781   -1.1169 C   0  0  0  0  0  0  0  0  0  0  0  0
   -3.1313   -5.6567   -0.5095 O   0  0  0  0  0  0  0  0  0  0  0  0
    0.3342    2.0174   -1.9798 C   0  0  0  0  0  0  0  0  0  0  0  0
   -3.8147    3.9775    2.9340 C   0  0  0  0  0  0  0  0  0  0  0  0
   -4.8066    4.5502    3.8190 C   0  0  0  0  0  0  0  0  0  0  0  0
   -4.6442    5.8497    4.3911 C   0  0  0  0  0  0  0  0  0  0  0  0
   -3.4548    6.5684    4.0528 C   0  0  0  0  0  0  0  0  0  0  0  0
   -2.4370    6.0607    3.1847 C   0  0  0  0  0  0  0  0  0  0  0  0
   -2.6358    4.7571    2.6323 C   0  0  0  0  0  0  0  0  0  0  0  0
    3.6961    0.1773   -0.2972 C   0  0  2  0  0  0  0  0  0  0  0  0
    3.3219   -0.1799   -1.6272 O   0  0  0  0  0  0  0  0  0  0  0  0
   -2.0654   -4.9541   -2.3687 C   0  0  0  0  0  0  0  0  0  0  0  0
    5.1907   -0.2220   -0.0624 C   0  0  1  0  0  0  0  0  0  0  0  0
    5.3549   -1.6120   -0.0814 N   0  0  0  0  0  0  0  0  0  0  0  0
    5.8965   -2.4504    0.7613 C   0  0  0  0  0  0  0  0  0  0  0  0
    6.4653   -1.9598    1.7353 O   0  0  0  0  0  0  0  0  0  0  0  0
    6.2436    0.3950   -0.9110 C   0  0  0  0  0  0  0  0  0  0  0  0
    7.2211    1.1880   -0.2161 C   0  0  0  0  0  0  0  0  0  0  0  0
    8.3193    1.7592   -0.9342 C   0  0  0  0  0  0  0  0  0  0  0  0
    8.4014    1.5150   -2.3428 C   0  0  0  0  0  0  0  0  0  0  0  0
    7.4412    0.7367   -3.0645 C   0  0  0  0  0  0  0  0  0  0  0  0
    6.3514    0.1725   -2.3322 C   0  0  0  0  0  0  0  0  0  0  0  0
    5.8493   -3.8451    0.5636 C   0  0  0  0  0  0  0  0  0  0  0  0
    6.5796   -4.7354    1.4381 C   0  0  0  0  0  0  0  0  0  0  0  0
    6.5459   -6.1526    1.2624 C   0  0  0  0  0  0  0  0  0  0  0  0
    5.7571   -6.6595    0.1822 C   0  0  0  0  0  0  0  0  0  0  0  0
    5.0120   -5.8338   -0.7176 C   0  0  0  0  0  0  0  0  0  0  0  0
    5.0708   -4.4215   -0.5103 C   0  0  0  0  0  0  0  0  0  0  0  0
   -2.1542    3.0869   -3.3015 H   0  0  0  0  0  0  0  0  0  0  0  0
   -2.0155    0.5793   -0.8252 H   0  0  0  0  0  0  0  0  0  0  0  0
  1  4  1  0  0  0  0
  1  2  1  0  0  0  0
  2  3  1  0  0  0  0
  3  8  1  1  0  0  0
  3 18  1  0  0  0  0
  4  3  1  1  0  0  0
  4  5  1  0  0  0  0
  4 63  1  0  0  0  0
  5  6  1  0  0  0  0
  6  7  1  1  0  0  0
  6 21  1  0  0  0  0
  7 16  1  0  0  0  0
  7  8  1  1  0  0  0
  7 22  1  0  0  0  0
  8 64  1  6  0  0  0
  9  8  1  6  0  0  0
  9 10  1  0  0  0  0
  9 23  1  0  0  0  0
 10 15  1  0  0  0  0
 10 11  1  0  0  0  0
 10 26  1  1  0  0  0
 11 12  1  0  0  0  0
 12 13  1  0  0  0  0
 12 27  1  6  0  0  0
 13 14  2  0  0  0  0
 13 30  1  0  0  0  0
 14 15  1  0  0  0  0
 14 17  1  0  0  0  0
 15 31  1  0  0  0  0
 15 32  1  0  0  0  0
 16 17  1  0  0  0  0
 16 33  2  0  0  0  0
 17 34  1  1  0  0  0
 18 19  1  0  0  0  0
 19 20  2  0  0  0  0
 19 37  1  0  0  0  0
 23 24  1  0  0  0  0
 24 25  2  0  0  0  0
 24 38  1  0  0  0  0
 27 28  1  0  0  0  0
 28 44  1  0  0  0  0
 28 29  2  0  0  0  0
 34 35  1  0  0  0  0
 35 36  2  0  0  0  0
 35 46  1  0  0  0  0
 38 43  2  0  0  0  0
 38 39  1  0  0  0  0
 39 40  2  0  0  0  0
 40 41  1  0  0  0  0
 41 42  2  0  0  0  0
 42 43  1  0  0  0  0
 44 47  1  0  0  0  0
 44 45  1  6  0  0  0
 47 48  1  6  0  0  0
 47 51  1  0  0  0  0
 48 49  1  0  0  0  0
 49 50  2  0  0  0  0
 49 57  1  0  0  0  0
 51 52  2  0  0  0  0
 51 56  1  0  0  0  0
 52 53  1  0  0  0  0
 53 54  2  0  0  0  0
 54 55  1  0  0  0  0
 55 56  2  0  0  0  0
 57 62  2  0  0  0  0
 57 58  1  0  0  0  0
 58 59  2  0  0  0  0
 59 60  1  0  0  0  0
 60 61  2  0  0  0  0
 61 62  1  0  0  0  0
M  END
>  <StdInChI>
InChI=1S/C47H51NO14/c1-25-31(60-43(56)36(52)35(28-16-10-7-11-17-28)48-41(54)29-18-12-8-13-19-29)23-47(57)40(61-42(55)30-20-14-9-15-21-30)38-45(6,32(51)22-33-46(38,24-58-33)62-27(3)50)39(53)37(59-26(2)49)34(25)44(47,4)5/h7-21,31-33,35-38,40,51-52,57H,22-24H2,1-6H3,(H,48,54)/t31-,32-,33+,35-,36+,37+,38-,40-,45+,46-,47+/m0/s1

>  <StdInChIKey>
RCINICONZNJXQF-MZXODVADSA-N

>  <AuxInfo>
1/1/N:30,46,37,31,32,22,54,60,41,53,55,59,61,40,42,52,56,58,62,39,43,5,11,2,13,35,19,51,57,38,12,6,4,14,47,44,17,8,16,9,49,24,28,15,7,3,10,48,36,20,21,45,33,50,25,29,26,1,34,27,23,18/E:(4,5)(10,11)(12,13)(14,15)(16,17)(18,19)(20,21)/it:im/rA:64cOCCCCCCCCCCCCCCCCOCOOCOCOOOCOCCCOOCOCCCCCCCCOCCNCOCCCCCCCCCCCCHH/rB:s1;s2;s1s3;s4;s5;s6;s3s7;s8;s9;s10;s11;s12;d13;s10s14;s7;s14s16;s3;s18;d19;s6;s7;s9;s23;d24;s10;s12;s27;d28;s13;s15;s15;d16;s17;s34;d35;s19;s24;s38;d39;s40;d41;d38s42;s28;s44;s35;s44;s47;s48;d49;s47;d51;s52;d53;s54;s51d55;s49;s57;d58;s59;d60;d57s61;s4;s8;/rC:-3.9847,3.5605,-2.4709;-3.761,3.531,-1.0583;-2.6932,2.432,-1.2196;-2.9608,2.5997,-2.743;-3.5089,1.4382,-3.6052;-3.5944,.0675,-2.8918;-3.9804,.0314,-1.3598;-2.9786,1.0079,-.5774;-3.0092,.9675,1.0136;-1.9966,.0414,1.8109;-.508,.4486,1.5219;.3362,-.6475,.7966;-.4905,-1.4669,-.1378;-1.7823,-1.8075,.1979;-2.2778,-1.511,1.5908;-3.9283,-1.4305,-.9995;-2.7325,-2.2867,-.8284;-1.5436,3.0077,-.8039;-.324,2.8752,-1.0267;.414,3.5729,-.3514;-4.37,-.7636,-3.754;-5.4308,.6085,-1.1687;-3.1294,2.1772,1.6073;-3.9828,2.6876,2.3831;-4.9712,2.0127,2.672;-2.1011,.3735,3.2017;1.486,-.0761,.3689;2.6808,-.3625,.6037;2.9871,-1.106,1.5315;.1769,-1.8512,-1.3865;-1.6307,-2.5177,2.587;-3.6666,-1.9658,2.1395;-4.9577,-2.0876,-.843;-2.9509,-3.5907,-.5583;-2.7282,-4.6781,-1.1169;-3.1313,-5.6567,-.5095;.3342,2.0174,-1.9798;-3.8147,3.9775,2.934;-4.8066,4.5502,3.819;-4.6442,5.8497,4.3911;-3.4548,6.5684,4.0528;-2.437,6.0607,3.1847;-2.6358,4.7571,2.6323;3.6961,.1773,-.2972;3.3219,-.1799,-1.6272;-2.0654,-4.9541,-2.3687;5.1907,-.222,-.0624;5.3549,-1.612,-.0814;5.8965,-2.4504,.7613;6.4653,-1.9598,1.7353;6.2436,.395,-.911;7.2211,1.188,-.2161;8.3193,1.7592,-.9342;8.4014,1.515,-2.3428;7.4412,.7367,-3.0645;6.3514,.1725,-2.3322;5.8493,-3.8451,.5636;6.5796,-4.7354,1.4381;6.5459,-6.1526,1.2624;5.7571,-6.6595,.1822;5.012,-5.8338,-.7176;5.0708,-4.4215,-.5103;-2.1542,3.0869,-3.3015;-2.0155,.5793,-.8252;

>  <Formula>
C47 H51 N O14

>  <Mw>
853.9061

>  <SMILES>
O1C[C@]2(OC(C)=O)[C@@]1([H])C[C@H](O)[C@]1(C)[C@]2([H])[C@H](OC(C2C=CC=CC=2)=O)[C@]2(O)C[C@H](OC(=O)[C@H](O)[C@H](C3C=CC=CC=3)NC(C3C=CC=CC=3)=O)C(C)=C([C@@H](OC(C)=O)C1=O)C2(C)C

>  <CSID>
10368587

$$$$
