REMARK  5 active torsions:
REMARK  status: ('A' for Active; 'I' for Inactive)
REMARK    1  A    between atoms: S_1  and  N_4 
REMARK    2  A    between atoms: S_1  and  C_15 
REMARK    3  A    between atoms: N_5  and  C_11 
REMARK    4  A    between atoms: C_11  and  C_14 
REMARK    5  A    between atoms: C_17  and  C_21 
ROOT
HETATM    1  N   UNL     1       1.509  -4.198   0.410  1.00  0.00    -0.197 NA
HETATM    2  C   UNL     1       1.799  -1.902   1.670  1.00  0.00     0.159 C 
HETATM    3  C   UNL     1       1.637  -3.190   0.971  1.00  0.00     0.061 C 
ENDROOT
BRANCH   2   4
HETATM    4  C   UNL     1       1.825  -0.748   0.707  1.00  0.00     0.092 C 
HETATM    5  C   UNL     1       2.938  -0.746  -0.353  1.00  0.00     0.142 C 
HETATM    6  N   UNL     1       3.729   0.224   0.486  1.00  0.00    -0.206 NA
HETATM    7  C   UNL     1       2.448   0.566   1.204  1.00  0.00     0.142 C 
BRANCH   4   8
HETATM    8  N   UNL     1       0.511  -0.549   0.125  1.00  0.00    -0.267 N 
HETATM    9  N   UNL     1       0.203  -0.950  -1.121  1.00  0.00    -0.183 NA
HETATM   10  C   UNL     1      -1.073  -0.578  -1.252  1.00  0.00     0.154 A 
HETATM   11  C   UNL     1      -1.576   0.056  -0.100  1.00  0.00     0.030 A 
HETATM   12  C   UNL     1      -0.520   0.059   0.779  1.00  0.00     0.128 A 
BRANCH  11  13
HETATM   13  C   UNL     1      -2.863   0.602   0.190  1.00  0.00     0.085 A 
HETATM   14  N   UNL     1      -2.951   1.647   1.045  1.00  0.00    -0.240 NA
HETATM   15  C   UNL     1      -4.184   2.142   1.297  1.00  0.00     0.236 A 
HETATM   16  N   UNL     1      -5.373   1.734   0.808  1.00  0.00    -0.224 NA
HETATM   17  C   UNL     1      -5.219   0.697  -0.033  1.00  0.00     0.141 A 
HETATM   18  N   UNL     1      -6.232   0.055  -0.694  1.00  0.00    -0.350 N 
HETATM   19  C   UNL     1      -4.022   0.085  -0.386  1.00  0.00     0.041 A 
HETATM   20  C   UNL     1      -5.711  -0.953  -1.463  1.00  0.00     0.091 A 
HETATM   21  H   UNL     1      -7.213   0.289  -0.625  1.00  0.00     0.166 HD
HETATM   22  C   UNL     1      -4.343  -0.958  -1.292  1.00  0.00     0.034 A 
ENDBRANCH  11  13
ENDBRANCH   4   8
BRANCH   6  23
HETATM   23  S   UNL     1       4.816   1.386  -0.153  1.00  0.00     0.211 S 
HETATM   24  O   UNL     1       5.516   2.016   0.944  1.00  0.00    -0.211 OA
HETATM   25  O   UNL     1       4.128   2.157  -1.163  1.00  0.00    -0.211 OA
BRANCH  23  26
HETATM   26  C   UNL     1       5.947   0.291  -0.971  1.00  0.00     0.153 C 
HETATM   27  C   UNL     1       7.061   1.054  -1.654  1.00  0.00     0.022 C 
ENDBRANCH  23  26
ENDBRANCH   6  23
ENDBRANCH   2   4
TORSDOF 5
