REMARK  10 active torsions:
REMARK  status: ('A' for Active; 'I' for Inactive)
REMARK    1  A    between atoms: O_1  and  C_12 
REMARK    2  A    between atoms: O_2  and  C_13 
REMARK    3  A    between atoms: O_3  and  C_18 
REMARK    4  A    between atoms: O_4  and  C_19 
REMARK    5  A    between atoms: C_7  and  C_16 
REMARK    6  A    between atoms: C_8  and  C_17 
REMARK    7  A    between atoms: C_9  and  C_20 
REMARK    8  A    between atoms: C_9  and  C_21 
REMARK    9  A    between atoms: C_20  and  C_24 
REMARK   10  A    between atoms: C_21  and  C_25 
ROOT
HETATM    1  C   UNL     1       0.033   2.788   0.601  1.00  0.00     0.165 C 
ENDROOT
BRANCH   1   2
HETATM    2  C   UNL     1       1.475   2.856   0.139  1.00  0.00     0.156 C 
HETATM    3  O   UNL     1       2.077   3.918   0.008  1.00  0.00    -0.293 OA
BRANCH   2   4
HETATM    4  C   UNL     1       2.140   1.541  -0.104  1.00  0.00     0.051 C 
HETATM    5  C   UNL     1       3.463   1.410   0.062  1.00  0.00     0.015 C 
BRANCH   5   6
HETATM    6  C   UNL     1       4.215   0.162  -0.162  1.00  0.00    -0.033 A 
HETATM    7  C   UNL     1       5.464   0.009   0.419  1.00  0.00     0.051 A 
HETATM    8  C   UNL     1       6.175  -1.172   0.206  1.00  0.00     0.102 A 
HETATM    9  C   UNL     1       5.629  -2.182  -0.585  1.00  0.00     0.099 A 
HETATM   10  C   UNL     1       4.371  -2.013  -1.163  1.00  0.00     0.040 A 
HETATM   11  C   UNL     1       3.659  -0.832  -0.950  1.00  0.00     0.014 A 
BRANCH   8  12
HETATM   12  O   UNL     1       7.403  -1.326   0.776  1.00  0.00    -0.353 OA
HETATM   13  C   UNL     1       7.890  -0.246   1.570  1.00  0.00     0.210 C 
ENDBRANCH   8  12
BRANCH   9  14
HETATM   14  O   UNL     1       6.314  -3.340  -0.799  1.00  0.00    -0.358 OA
HETATM   15  H   UNL     1       7.162  -3.286  -0.326  1.00  0.00     0.217 HD
ENDBRANCH   9  14
ENDBRANCH   5   6
ENDBRANCH   2   4
ENDBRANCH   1   2
BRANCH   1  16
HETATM   16  C   UNL     1      -0.916   2.066  -0.336  1.00  0.00     0.156 C 
HETATM   17  O   UNL     1      -0.734   2.015  -1.550  1.00  0.00    -0.293 OA
BRANCH  16  18
HETATM   18  C   UNL     1      -2.069   1.376   0.314  1.00  0.00     0.051 C 
HETATM   19  C   UNL     1      -2.974   0.721  -0.427  1.00  0.00     0.015 C 
BRANCH  19  20
HETATM   20  C   UNL     1      -4.150   0.019   0.115  1.00  0.00    -0.033 A 
HETATM   21  C   UNL     1      -5.220  -0.258  -0.720  1.00  0.00     0.051 A 
HETATM   22  C   UNL     1      -6.334  -0.922  -0.206  1.00  0.00     0.102 A 
HETATM   23  C   UNL     1      -6.362  -1.300   1.136  1.00  0.00     0.099 A 
HETATM   24  C   UNL     1      -5.277  -1.014   1.965  1.00  0.00     0.040 A 
HETATM   25  C   UNL     1      -4.163  -0.350   1.451  1.00  0.00     0.014 A 
BRANCH  22  26
HETATM   26  O   UNL     1      -7.387  -1.197  -1.025  1.00  0.00    -0.353 OA
HETATM   27  C   UNL     1      -7.279  -0.777  -2.384  1.00  0.00     0.210 C 
ENDBRANCH  22  26
BRANCH  23  28
HETATM   28  O   UNL     1      -7.443  -1.951   1.650  1.00  0.00    -0.358 OA
HETATM   29  H   UNL     1      -7.285  -2.132   2.592  1.00  0.00     0.217 HD
ENDBRANCH  23  28
ENDBRANCH  19  20
ENDBRANCH  16  18
ENDBRANCH   1  16
TORSDOF 10
