REMARK  2 active torsions:
REMARK  status: ('A' for Active; 'I' for Inactive)
REMARK    1  A    between atoms: N_10  and  C_11 
REMARK    2  A    between atoms: C_14  and  N_15 
ROOT
HETATM    1  O   UNL     1      -1.250  -1.807  -0.618  1.00  0.00    -0.169 OA
HETATM    2  C   UNL     1      -1.591  -0.641  -0.115  1.00  0.00     0.212 A 
HETATM    3  C   UNL     1      -2.832  -0.307   0.167  1.00  0.00     0.031 A 
HETATM    4  C   UNL     1      -3.992  -1.181  -0.040  1.00  0.00     0.017 A 
HETATM    5  C   UNL     1      -5.220  -0.704   0.297  1.00  0.00     0.001 A 
HETATM    6  C   UNL     1      -5.503   0.518   0.816  1.00  0.00     0.001 A 
HETATM    7  C   UNL     1      -4.447   1.403   1.039  1.00  0.00     0.013 A 
HETATM    8  C   UNL     1      -3.238   0.878   0.686  1.00  0.00    -0.010 A 
HETATM    9 SE   UNL     1      -1.369   1.779   0.817  1.00  0.00     0.000 Se
HETATM   10  N   UNL     1      -0.559   0.192   0.090  1.00  0.00    -0.222 N 
ENDROOT
BRANCH  10  11
HETATM   11  C   UNL     1       0.861   0.136  -0.103  1.00  0.00     0.059 A 
HETATM   12  C   UNL     1       1.660  -0.438   0.856  1.00  0.00     0.034 A 
HETATM   13  C   UNL     1       3.039  -0.520   0.717  1.00  0.00     0.038 A 
HETATM   14  C   UNL     1       3.626  -0.015  -0.411  1.00  0.00     0.103 A 
HETATM   15  C   UNL     1       2.856   0.562  -1.383  1.00  0.00     0.038 A 
HETATM   16  C   UNL     1       1.503   0.627  -1.216  1.00  0.00     0.034 A 
BRANCH  14  17
HETATM   17  N   UNL     1       5.045  -0.121  -0.515  1.00  0.00    -0.116 N 
HETATM   18  O   UNL     1       5.601   0.333  -1.535  1.00  0.00    -0.532 OA
HETATM   19  O   UNL     1       5.812  -0.694   0.451  1.00  0.00    -0.532 OA
ENDBRANCH  14  17
ENDBRANCH  10  11
TORSDOF 2
