REMARK  1 active torsions:
REMARK  status: ('A' for Active; 'I' for Inactive)
REMARK    1  A    between atoms: N_10  and  C_11 
ROOT
HETATM    1  O   UNL     1       0.271  -1.120  -1.739  1.00  0.00    -0.169 OA
HETATM    2  C   UNL     1       0.662  -0.416  -0.669  1.00  0.00     0.212 A 
HETATM    3  C   UNL     1       1.896  -0.312  -0.274  1.00  0.00     0.031 A 
HETATM    4  C   UNL     1       3.017  -0.954  -0.953  1.00  0.00     0.017 A 
HETATM    5  C   UNL     1       4.265  -0.799  -0.484  1.00  0.00     0.001 A 
HETATM    6  C   UNL     1       4.578  -0.073   0.601  1.00  0.00     0.001 A 
HETATM    7  C   UNL     1       3.601   0.576   1.319  1.00  0.00     0.013 A 
HETATM    8  C   UNL     1       2.316   0.425   0.849  1.00  0.00    -0.010 A 
HETATM    9 SE   UNL     1       0.566   1.080   1.419  1.00  0.00     0.000 Se
HETATM   10  N   UNL     1      -0.397   0.220   0.015  1.00  0.00    -0.221 N 
ENDROOT
BRANCH  10  11
HETATM   11  C   UNL     1      -1.738   0.266  -0.191  1.00  0.00     0.077 A 
HETATM   12  C   UNL     1      -2.245   0.635  -1.422  1.00  0.00     0.033 A 
HETATM   13  C   UNL     1      -3.597   0.687  -1.650  1.00  0.00     0.002 A 
HETATM   14  C   UNL     1      -4.522   0.379  -0.675  1.00  0.00     0.002 A 
HETATM   15  C   UNL     1      -4.021   0.011   0.552  1.00  0.00     0.021 A 
HETATM   16  C   UNL     1      -2.685  -0.046   0.795  1.00  0.00     0.039 A 
HETATM   17 BR   UNL     1      -1.967  -0.558   2.506  1.00  0.00    -0.049 Br
ENDBRANCH  10  11
TORSDOF 1
