REMARK  3 active torsions:
REMARK  status: ('A' for Active; 'I' for Inactive)
REMARK    1  A    between atoms: O_3  and  C_15 
REMARK    2  A    between atoms: O_3  and  C_16 
REMARK    3  A    between atoms: C_9  and  C_15 
ROOT
HETATM    1 CL   UNL     1       6.960   0.482  -0.237  1.00  0.00    -0.084 Cl
HETATM    2  N   UNL     1       1.273  -0.813   0.087  1.00  0.00    -0.351 N 
HETATM    3  C   UNL     1       2.959   0.641  -0.047  1.00  0.00    -0.005 A 
HETATM    4  C   UNL     1       2.644  -0.718   0.017  1.00  0.00     0.043 A 
HETATM    5  C   UNL     1       0.711   0.436   0.071  1.00  0.00     0.110 A 
HETATM    6  C   UNL     1       1.730   1.357  -0.012  1.00  0.00     0.049 A 
HETATM    7  C   UNL     1       4.314   1.020  -0.127  1.00  0.00     0.037 A 
HETATM    8  C   UNL     1       3.620  -1.721   0.005  1.00  0.00     0.032 A 
HETATM    9  C   UNL     1       5.301   0.028  -0.140  1.00  0.00     0.035 A 
HETATM   10  C   UNL     1       4.957  -1.321  -0.074  1.00  0.00     0.026 A 
HETATM   11  H   UNL     1       0.758  -1.681   0.143  1.00  0.00     0.166 HD
ENDROOT
BRANCH   5  12
HETATM   12  C   UNL     1      -0.696   0.673   0.131  1.00  0.00     0.315 C 
HETATM   13  O   UNL     1      -1.243   1.802   0.118  1.00  0.00    -0.257 OA
BRANCH  12  14
HETATM   14  O   UNL     1      -1.429  -0.520   0.212  1.00  0.00    -0.272 OA
BRANCH  14  15
HETATM   15  C   UNL     1      -2.816  -0.362   0.275  1.00  0.00     0.098 A 
HETATM   16  C   UNL     1      -3.586  -0.326  -0.883  1.00  0.00     0.064 A 
HETATM   17  C   UNL     1      -4.964  -0.168  -0.789  1.00  0.00     0.054 A 
HETATM   18 CL   UNL     1      -5.945  -0.117  -2.195  1.00  0.00    -0.083 Cl
HETATM   19  C   UNL     1      -5.520  -0.051   0.475  1.00  0.00     0.140 A 
HETATM   20  N   UNL     1      -4.804  -0.082   1.621  1.00  0.00    -0.269 NA
HETATM   21  C   UNL     1      -3.467  -0.237   1.491  1.00  0.00     0.153 A 
ENDBRANCH  14  15
ENDBRANCH  12  14
ENDBRANCH   5  12
TORSDOF 3
