REMARK  2 active torsions:
REMARK  status: ('A' for Active; 'I' for Inactive)
REMARK    1  A    between atoms: N_3  and  C_4 
REMARK    2  A    between atoms: C_4  and  C_8 
ROOT
HETATM    1  S   UNL     1       0.723   1.599  -0.924  1.00  0.00    -0.008 SA
HETATM    2  O   UNL     1       0.510  -2.194  -0.562  1.00  0.00    -0.267 OA
HETATM    3  N   UNL     1       0.016   0.045  -1.067  1.00  0.00    -0.279 N 
HETATM    4  C   UNL     1       2.056  -0.483  -0.044  1.00  0.00     0.051 A 
HETATM    5  C   UNL     1       2.159   0.902  -0.165  1.00  0.00     0.037 A 
HETATM    6  C   UNL     1       0.784  -1.004  -0.578  1.00  0.00     0.265 A 
HETATM    7  C   UNL     1       3.068  -1.243   0.524  1.00  0.00     0.018 A 
HETATM    8  C   UNL     1       3.289   1.565   0.285  1.00  0.00     0.021 A 
HETATM    9  C   UNL     1       4.208  -0.579   0.979  1.00  0.00     0.001 A 
HETATM   10  C   UNL     1       4.318   0.815   0.860  1.00  0.00     0.001 A 
ENDROOT
BRANCH   3  11
HETATM   11  C   UNL     1      -1.292  -0.095  -1.665  1.00  0.00     0.179 C 
BRANCH  11  12
HETATM   12  C   UNL     1      -2.335   0.012  -0.600  1.00  0.00    -0.039 A 
HETATM   13  C   UNL     1      -2.870   1.257  -0.274  1.00  0.00     0.009 A 
HETATM   14  C   UNL     1      -3.843   1.356   0.721  1.00  0.00     0.001 A 
HETATM   15  C   UNL     1      -4.279   0.211   1.387  1.00  0.00     0.000 A 
HETATM   16  C   UNL     1      -3.742  -1.034   1.059  1.00  0.00     0.001 A 
HETATM   17  C   UNL     1      -2.769  -1.133   0.065  1.00  0.00     0.009 A 
ENDBRANCH  11  12
ENDBRANCH   3  11
TORSDOF 2
