REMARK  2 active torsions:
REMARK  status: ('A' for Active; 'I' for Inactive)
REMARK    1  A    between atoms: N_10  and  C_11 
REMARK    2  A    between atoms: C_16  and  O_17 
ROOT
HETATM    1  O   UNL     1      -0.261   0.273  -2.139  1.00  0.00    -0.169 OA
HETATM    2  C   UNL     1       0.397   0.151  -0.988  1.00  0.00     0.212 A 
HETATM    3  C   UNL     1       1.704   0.349  -0.932  1.00  0.00     0.031 A 
HETATM    4  C   UNL     1       2.546   0.708  -2.067  1.00  0.00     0.017 A 
HETATM    5  C   UNL     1       3.873   0.891  -1.919  1.00  0.00     0.001 A 
HETATM    6  C   UNL     1       4.516   0.758  -0.722  1.00  0.00     0.001 A 
HETATM    7  C   UNL     1       3.770   0.415   0.410  1.00  0.00     0.013 A 
HETATM    8  C   UNL     1       2.463   0.244   0.214  1.00  0.00    -0.010 A 
HETATM    9 SE   UNL     1       1.026  -0.240   1.503  1.00  0.00     0.000 Se
HETATM   10  N   UNL     1      -0.349  -0.171   0.037  1.00  0.00    -0.219 N 
ENDROOT
BRANCH  10  11
HETATM   11  C   UNL     1      -1.702  -0.454   0.371  1.00  0.00     0.092 A 
HETATM   12  C   UNL     1      -2.374  -1.382  -0.396  1.00  0.00     0.034 A 
HETATM   13  C   UNL     1      -3.680  -1.659  -0.079  1.00  0.00     0.002 A 
HETATM   14  C   UNL     1      -4.321  -1.030   0.982  1.00  0.00     0.003 A 
HETATM   15  C   UNL     1      -3.645  -0.112   1.736  1.00  0.00     0.039 A 
HETATM   16  C   UNL     1      -2.353   0.161   1.421  1.00  0.00     0.094 A 
BRANCH  16  17
HETATM   17  O   UNL     1      -1.608   1.097   2.162  1.00  0.00    -0.358 OA
HETATM   18  H   UNL     1      -2.003   1.543   2.885  1.00  0.00     0.217 HD
ENDBRANCH  16  17
ENDBRANCH  10  11
TORSDOF 2
