REMARK  2 active torsions:
REMARK  status: ('A' for Active; 'I' for Inactive)
REMARK    1  A    between atoms: O_2  and  C_3 
REMARK    2  A    between atoms: C_8  and  N_9 
ROOT
HETATM    1  N   UNL     1      -0.204  -0.335  -0.115  1.00  0.00    -0.219 N 
HETATM    2 SE   UNL     1       0.810   0.335  -1.707  1.00  0.00     0.000 Se
HETATM    3  C   UNL     1       2.429   0.365  -0.764  1.00  0.00    -0.010 A 
HETATM    4  C   UNL     1       3.689   0.712  -1.113  1.00  0.00     0.013 A 
HETATM    5  C   UNL     1       4.700   0.633  -0.198  1.00  0.00     0.001 A 
HETATM    6  C   UNL     1       4.400   0.200   1.058  1.00  0.00     0.001 A 
HETATM    7  C   UNL     1       3.145  -0.152   1.427  1.00  0.00     0.017 A 
HETATM    8  C   UNL     1       2.040  -0.091   0.511  1.00  0.00     0.031 A 
HETATM    9  C   UNL     1       0.762  -0.397   0.712  1.00  0.00     0.212 A 
HETATM   10  O   UNL     1       0.447  -0.827   1.950  1.00  0.00    -0.169 OA
ENDROOT
BRANCH   1  11
HETATM   11  C   UNL     1      -1.573  -0.561  -0.242  1.00  0.00     0.093 A 
HETATM   12  C   UNL     1      -2.491   0.473  -0.027  1.00  0.00     0.097 A 
HETATM   13  C   UNL     1      -3.820   0.171  -0.171  1.00  0.00     0.039 A 
HETATM   14  C   UNL     1      -4.222  -1.100  -0.513  1.00  0.00     0.003 A 
HETATM   15  C   UNL     1      -3.312  -2.105  -0.721  1.00  0.00     0.002 A 
HETATM   16  C   UNL     1      -1.980  -1.836  -0.585  1.00  0.00     0.034 A 
BRANCH  12  17
HETATM   17  O   UNL     1      -1.988   1.705   0.310  1.00  0.00    -0.354 OA
HETATM   18  C   UNL     1      -2.829   2.809   0.546  1.00  0.00     0.210 C 
ENDBRANCH  12  17
ENDBRANCH   1  11
TORSDOF 2
