REMARK  1 active torsions:
REMARK  status: ('A' for Active; 'I' for Inactive)
REMARK    1  A    between atoms: C_8  and  N_9 
ROOT
HETATM    1  N   UNL     1      -0.129   0.037   0.116  1.00  0.00    -0.221 N 
HETATM    2 SE   UNL     1       0.680   0.174   1.898  1.00  0.00     0.000 Se
HETATM    3  C   UNL     1       2.453  -0.050   1.116  1.00  0.00    -0.010 A 
HETATM    4  C   UNL     1       3.707  -0.081   1.704  1.00  0.00     0.013 A 
HETATM    5  C   UNL     1       4.819  -0.261   0.856  1.00  0.00     0.001 A 
HETATM    6  C   UNL     1       4.582  -0.392  -0.484  1.00  0.00     0.001 A 
HETATM    7  C   UNL     1       3.340  -0.354  -1.001  1.00  0.00     0.017 A 
HETATM    8  C   UNL     1       2.169  -0.176  -0.213  1.00  0.00     0.031 A 
HETATM    9  C   UNL     1       0.914  -0.129  -0.653  1.00  0.00     0.212 A 
HETATM   10  O   UNL     1       0.615  -0.251  -1.947  1.00  0.00    -0.169 OA
ENDROOT
BRANCH   1  11
HETATM   11  C   UNL     1      -1.486   0.126  -0.028  1.00  0.00     0.067 A 
HETATM   12  C   UNL     1      -2.109   1.344  -0.164  1.00  0.00    -0.033 A 
HETATM   13  C   UNL     1      -1.289   2.588  -0.156  1.00  0.00     0.050 C 
HETATM   14  C   UNL     1      -3.488   1.452  -0.311  1.00  0.00     0.011 A 
HETATM   15  C   UNL     1      -4.258   0.288  -0.318  1.00  0.00     0.024 A 
HETATM   16  C   UNL     1      -3.652  -0.928  -0.183  1.00  0.00     0.036 A 
HETATM   17 CL   UNL     1      -4.587  -2.386  -0.190  1.00  0.00    -0.084 Cl
HETATM   18  C   UNL     1      -2.281  -1.001  -0.040  1.00  0.00     0.056 A 
ENDBRANCH   1  11
TORSDOF 1
