REMARK  1 active torsions:
REMARK  status: ('A' for Active; 'I' for Inactive)
REMARK    1  A    between atoms: N_3  and  C_5 
ROOT
HETATM    1  S   UNL     1       0.820   1.728  -0.250  1.00  0.00    -0.003 SA
HETATM    2  O   UNL     1       0.444  -2.030   0.295  1.00  0.00    -0.266 OA
HETATM    3  N   UNL     1      -0.059   0.248  -0.036  1.00  0.00    -0.246 N 
HETATM    4  C   UNL     1       2.200  -0.465   0.069  1.00  0.00     0.051 A 
HETATM    5  C   UNL     1       2.367   0.899  -0.129  1.00  0.00     0.038 A 
HETATM    6  C   UNL     1       0.781  -0.868   0.127  1.00  0.00     0.270 A 
HETATM    7  C   UNL     1       3.288  -1.318   0.194  1.00  0.00     0.018 A 
HETATM    8  C   UNL     1       3.636   1.451  -0.207  1.00  0.00     0.021 A 
HETATM    9  C   UNL     1       4.569  -0.770   0.115  1.00  0.00     0.001 A 
HETATM   10  C   UNL     1       4.742   0.607  -0.084  1.00  0.00     0.001 A 
ENDROOT
BRANCH   3  11
HETATM   11  C   UNL     1      -1.445   0.172  -0.026  1.00  0.00     0.049 A 
HETATM   12  C   UNL     1      -2.091  -0.986  -0.469  1.00  0.00     0.031 A 
HETATM   13  C   UNL     1      -3.484  -1.062  -0.459  1.00  0.00     0.009 A 
HETATM   14  C   UNL     1      -4.238   0.020  -0.007  1.00  0.00    -0.062 A 
HETATM   15  C   UNL     1      -3.599   1.179   0.436  1.00  0.00     0.009 A 
HETATM   16  C   UNL     1      -5.727  -0.060   0.004  1.00  0.00     0.048 C 
HETATM   17  C   UNL     1      -2.206   1.254   0.426  1.00  0.00     0.031 A 
ENDBRANCH   3  11
TORSDOF 1
