REMARK  1 active torsions:
REMARK  status: ('A' for Active; 'I' for Inactive)
REMARK    1  A    between atoms: C_8  and  N_9 
ROOT
HETATM    1  N   UNL     1      -0.086   0.002  -0.213  1.00  0.00    -0.221 N 
HETATM    2 SE   UNL     1       0.796   1.545  -0.779  1.00  0.00     0.000 Se
HETATM    3  C   UNL     1       2.674   0.683  -0.294  1.00  0.00    -0.010 A 
HETATM    4  C   UNL     1       3.912   1.237  -0.431  1.00  0.00     0.013 A 
HETATM    5  C   UNL     1       4.936   0.352   0.003  1.00  0.00     0.001 A 
HETATM    6  C   UNL     1       4.554  -0.878   0.477  1.00  0.00     0.001 A 
HETATM    7  C   UNL     1       3.287  -1.329   0.571  1.00  0.00     0.017 A 
HETATM    8  C   UNL     1       2.168  -0.488   0.148  1.00  0.00     0.031 A 
HETATM    9  C   UNL     1       0.915  -0.842   0.203  1.00  0.00     0.212 A 
HETATM   10  O   UNL     1       0.458  -1.998   0.641  1.00  0.00    -0.169 OA
ENDROOT
BRANCH   1  11
HETATM   11  C   UNL     1      -1.468  -0.140  -0.254  1.00  0.00     0.067 A 
HETATM   12  C   UNL     1      -2.325   0.780   0.321  1.00  0.00    -0.011 A 
HETATM   13  C   UNL     1      -1.804   1.982   1.020  1.00  0.00     0.052 C 
HETATM   14  C   UNL     1      -3.684   0.597   0.255  1.00  0.00     0.042 A 
HETATM   15 CL   UNL     1      -4.840   1.714   0.956  1.00  0.00    -0.084 Cl
HETATM   16  C   UNL     1      -4.201  -0.526  -0.396  1.00  0.00     0.024 A 
HETATM   17  C   UNL     1      -3.330  -1.425  -0.959  1.00  0.00     0.004 A 
HETATM   18  C   UNL     1      -1.962  -1.266  -0.908  1.00  0.00     0.032 A 
ENDBRANCH   1  11
TORSDOF 1
