REMARK  3 active torsions:
REMARK  status: ('A' for Active; 'I' for Inactive)
REMARK    1  A    between atoms: O_2  and  C_12 
REMARK    2  A    between atoms: O_2  and  C_15 
REMARK    3  A    between atoms: C_8  and  C_12 
ROOT
HETATM    1  N   UNL     1       1.651  -0.762   0.077  1.00  0.00    -0.351 N 
HETATM    2  C   UNL     1       3.020  -0.648  -0.007  1.00  0.00     0.043 A 
HETATM    3  C   UNL     1       3.314   0.715  -0.092  1.00  0.00    -0.007 A 
HETATM    4  C   UNL     1       1.070   0.477   0.049  1.00  0.00     0.110 A 
HETATM    5  C   UNL     1       2.074   1.413  -0.055  1.00  0.00     0.049 A 
HETATM    6  C   UNL     1       4.011  -1.636  -0.015  1.00  0.00     0.030 A 
HETATM    7  C   UNL     1       4.662   1.113  -0.190  1.00  0.00     0.014 A 
HETATM    8  C   UNL     1       5.341  -1.217  -0.113  1.00  0.00     0.002 A 
HETATM    9  C   UNL     1       5.664   0.136  -0.199  1.00  0.00     0.001 A 
HETATM   10  H   UNL     1       1.149  -1.637   0.150  1.00  0.00     0.166 HD
ENDROOT
BRANCH   4  11
HETATM   11  C   UNL     1      -0.340   0.695   0.121  1.00  0.00     0.315 C 
HETATM   12  O   UNL     1      -0.903   1.815   0.099  1.00  0.00    -0.257 OA
BRANCH  11  13
HETATM   13  O   UNL     1      -1.052  -0.510   0.206  1.00  0.00    -0.272 OA
BRANCH  13  14
HETATM   14  C   UNL     1      -2.441  -0.373   0.279  1.00  0.00     0.098 A 
HETATM   15  C   UNL     1      -3.221  -0.347  -0.872  1.00  0.00     0.064 A 
HETATM   16  C   UNL     1      -4.601  -0.210  -0.767  1.00  0.00     0.054 A 
HETATM   17 CL   UNL     1      -5.594  -0.174  -2.165  1.00  0.00    -0.083 Cl
HETATM   18  C   UNL     1      -5.147  -0.103   0.501  1.00  0.00     0.140 A 
HETATM   19  N   UNL     1      -4.422  -0.124   1.642  1.00  0.00    -0.269 NA
HETATM   20  C   UNL     1      -3.084  -0.259   1.501  1.00  0.00     0.153 A 
ENDBRANCH  13  14
ENDBRANCH  11  13
ENDBRANCH   4  11
TORSDOF 3
