REMARK  9 active torsions:
REMARK  status: ('A' for Active; 'I' for Inactive)
REMARK    1  A    between atoms: N_7  and  CA_14 
REMARK       I    between atoms: N_7  and  C_17 
REMARK    2  A    between atoms: N_8  and  CA_16 
REMARK       I    between atoms: N_8  and  C_21 
REMARK    3  A    between atoms: C_10  and  C_12 
REMARK    4  A    between atoms: C_12  and  CA_14 
REMARK    5  A    between atoms: CA_14  and  C_18 
REMARK    6  A    between atoms: CA_16  and  C_17 
REMARK    7  A    between atoms: CA_16  and  C_19 
REMARK    8  A    between atoms: C_19  and  C_20 
REMARK    9  A    between atoms: C_21  and  CA_22 
ROOT
HETATM    1  CA  UNL     1      -0.454   1.361  -0.428  1.00  0.00     0.181 C 
ENDROOT
BRANCH   1   2
HETATM    2  N   UNL     1       0.725   0.540  -0.543  1.00  0.00    -0.342 N 
HETATM    3  C   UNL     1       1.032  -0.457   0.373  1.00  0.00     0.269 C 
HETATM    4  O   UNL     1       0.351  -0.740   1.355  1.00  0.00    -0.266 OA
HETATM    5  H   UNL     1       1.312   0.678  -1.359  1.00  0.00     0.163 HD
BRANCH   3   6
HETATM    6  CA  UNL     1       2.296  -1.198   0.128  1.00  0.00     0.102 A 
HETATM    7  N   UNL     1       2.752  -2.210   0.929  1.00  0.00    -0.351 N 
HETATM    8  C   UNL     1       3.945  -2.699   0.445  1.00  0.00     0.043 A 
HETATM    9  H   UNL     1       2.282  -2.552   1.756  1.00  0.00     0.166 HD
HETATM   10  C   UNL     1       4.252  -1.967  -0.704  1.00  0.00    -0.007 A 
HETATM   11  C   UNL     1       4.766  -3.722   0.931  1.00  0.00     0.030 A 
HETATM   12  C   UNL     1       3.204  -1.023  -0.891  1.00  0.00     0.049 A 
HETATM   13  C   UNL     1       5.438  -2.269  -1.403  1.00  0.00     0.014 A 
HETATM   14  C   UNL     1       6.269  -3.291  -0.929  1.00  0.00     0.001 A 
HETATM   15  C   UNL     1       5.936  -4.005   0.221  1.00  0.00     0.002 A 
ENDBRANCH   3   6
ENDBRANCH   1   2
BRANCH   1  16
HETATM   16  C   UNL     1      -1.591   0.617  -1.117  1.00  0.00     0.241 C 
HETATM   17  O   UNL     1      -1.429  -0.077  -2.119  1.00  0.00    -0.271 OA
HETATM   18  N   UNL     1      -2.816   0.858  -0.510  1.00  0.00    -0.348 N 
HETATM   19  H   UNL     1      -2.860   1.486   0.288  1.00  0.00     0.163 HD
BRANCH  18  20
HETATM   20  CA  UNL     1      -4.056   0.306  -1.004  1.00  0.00     0.146 C 
BRANCH  20  21
HETATM   21  C   UNL     1      -4.786  -0.524   0.049  1.00  0.00     0.046 C 
BRANCH  21  22
HETATM   22  C   UNL     1      -3.992  -1.742   0.482  1.00  0.00     0.081 C 
HETATM   23  C   UNL     1      -3.706  -2.716  -0.664  1.00  0.00     0.034 C 
HETATM   24  C   UNL     1      -3.557  -4.053   0.037  1.00  0.00     0.123 C 
HETATM   25  N   UNL     1      -4.422  -3.931   1.178  1.00  0.00    -0.361 N 
HETATM   26  C   UNL     1      -4.736  -2.610   1.479  1.00  0.00     0.222 C 
HETATM   27  H   UNL     1      -4.755  -4.722   1.721  1.00  0.00     0.162 HD
HETATM   28  O   UNL     1      -5.439  -2.211   2.394  1.00  0.00    -0.273 OA
ENDBRANCH  21  22
ENDBRANCH  20  21
BRANCH  20  29
HETATM   29  C   UNL     1      -4.887   1.487  -1.457  1.00  0.00     0.256 C 
HETATM   30  O   UNL     1      -6.114   1.462  -1.527  1.00  0.00    -0.305 OA
ENDBRANCH  20  29
ENDBRANCH  18  20
ENDBRANCH   1  16
BRANCH   1  31
HETATM   31  C   UNL     1      -0.260   2.743  -1.062  1.00  0.00     0.073 C 
BRANCH  31  32
HETATM   32  C   UNL     1       0.510   3.690  -0.174  1.00  0.00    -0.053 A 
HETATM   33  C   UNL     1       1.900   3.753  -0.263  1.00  0.00     0.049 A 
HETATM   34  C   UNL     1       2.613   4.627   0.559  1.00  0.00     0.116 A 
HETATM   35  F   UNL     1       3.948   4.687   0.473  1.00  0.00    -0.206 F 
HETATM   36  C   UNL     1       1.935   5.438   1.469  1.00  0.00     0.042 A 
HETATM   37  C   UNL     1       0.544   5.375   1.558  1.00  0.00     0.003 A 
HETATM   38  C   UNL     1      -0.169   4.501   0.737  1.00  0.00     0.007 A 
ENDBRANCH  31  32
ENDBRANCH   1  31
TORSDOF 9
