REMARK  6 active torsions:
REMARK  status: ('A' for Active; 'I' for Inactive)
REMARK    1  A    between atoms: O_4  and  C_24 
REMARK    2  A    between atoms: O_4  and  C_31 
REMARK    3  A    between atoms: N_8  and  C_19 
REMARK    4  A    between atoms: C_12  and  C_15 
REMARK    5  A    between atoms: C_13  and  C_18 
REMARK    6  A    between atoms: C_31  and  C_32 
ROOT
HETATM    1  O   UNL     1       0.436  -1.741  -1.060  1.00  0.00    -0.267 OA
HETATM    2  N   UNL     1      -1.789  -1.876  -0.296  1.00  0.00    -0.287 N 
HETATM    3  C   UNL     1      -2.984   0.196   0.041  1.00  0.00    -0.002 A 
HETATM    4  C   UNL     1      -0.619   0.300  -0.562  1.00  0.00     0.044 A 
HETATM    5  C   UNL     1      -1.765   0.919  -0.245  1.00  0.00     0.031 A 
HETATM    6  C   UNL     1      -2.938  -1.147   0.013  1.00  0.00     0.113 A 
HETATM    7  C   UNL     1      -0.593  -1.204  -0.647  1.00  0.00     0.263 A 
ENDROOT
BRANCH   4   8
HETATM    8  C   UNL     1       0.596   1.095  -0.820  1.00  0.00    -0.016 A 
HETATM    9  C   UNL     1       1.731   0.908  -0.032  1.00  0.00     0.052 A 
HETATM   10  C   UNL     1       2.881   1.660  -0.275  1.00  0.00     0.110 A 
HETATM   11  C   UNL     1       2.895   2.598  -1.307  1.00  0.00     0.171 A 
HETATM   12  F   UNL     1       4.005   3.316  -1.534  1.00  0.00    -0.201 F 
HETATM   13  C   UNL     1       1.759   2.785  -2.095  1.00  0.00     0.076 A 
HETATM   14 CL   UNL     1       1.771   3.941  -3.371  1.00  0.00    -0.081 Cl
HETATM   15  C   UNL     1       0.610   2.033  -1.852  1.00  0.00     0.039 A 
BRANCH  10  16
HETATM   16  O   UNL     1       3.988   1.477   0.495  1.00  0.00    -0.343 OA
BRANCH  16  17
HETATM   17  C   UNL     1       4.192   0.173   1.039  1.00  0.00     0.216 C 
BRANCH  17  18
HETATM   18  C   UNL     1       5.664  -0.058   1.218  1.00  0.00    -0.012 A 
HETATM   19  C   UNL     1       6.499  -0.326   0.133  1.00  0.00     0.042 A 
HETATM   20 CL   UNL     1       5.882  -0.406  -1.476  1.00  0.00    -0.084 Cl
HETATM   21  C   UNL     1       7.863  -0.535   0.339  1.00  0.00     0.024 A 
HETATM   22  C   UNL     1       8.391  -0.477   1.628  1.00  0.00     0.002 A 
HETATM   23  C   UNL     1       7.555  -0.208   2.713  1.00  0.00     0.001 A 
HETATM   24  C   UNL     1       6.192   0.001   2.507  1.00  0.00     0.011 A 
ENDBRANCH  17  18
ENDBRANCH  16  17
ENDBRANCH  10  16
ENDBRANCH   4   8
BRANCH   3  25
HETATM   25  C   UNL     1      -4.224   0.860   0.383  1.00  0.00     0.059 A 
HETATM   26  C   UNL     1      -4.327   1.654   1.457  1.00  0.00     0.113 A 
HETATM   27  N   UNL     1      -5.487   2.307   1.822  1.00  0.00    -0.313 N 
HETATM   28  C   UNL     1      -6.668   2.184   1.080  1.00  0.00     0.328 A 
HETATM   29  C   UNL     1      -5.449   3.141   3.018  1.00  0.00     0.160 C 
HETATM   30  O   UNL     1      -7.731   2.742   1.359  1.00  0.00    -0.246 OA
HETATM   31  N   UNL     1      -6.560   1.354  -0.041  1.00  0.00    -0.275 N 
HETATM   32  C   UNL     1      -5.432   0.669  -0.468  1.00  0.00     0.261 A 
HETATM   33  H   UNL     1      -7.400   1.242  -0.603  1.00  0.00     0.173 HD
HETATM   34  O   UNL     1      -5.418  -0.043  -1.469  1.00  0.00    -0.267 OA
ENDBRANCH   3  25
BRANCH   2  35
HETATM   35  C   UNL     1      -1.820  -3.326  -0.292  1.00  0.00     0.059 A 
HETATM   36  C   UNL     1      -2.985  -4.020  -0.599  1.00  0.00     0.033 A 
HETATM   37  C   UNL     1      -2.982  -5.411  -0.589  1.00  0.00     0.021 A 
HETATM   38  C   UNL     1      -1.799  -6.055  -0.266  1.00  0.00     0.116 A 
HETATM   39  N   UNL     1      -0.647  -5.415   0.039  1.00  0.00    -0.271 NA
HETATM   40  C   UNL     1      -0.688  -4.064   0.017  1.00  0.00     0.146 A 
ENDBRANCH   2  35
TORSDOF 6
