REMARK  3 active torsions:
REMARK  status: ('A' for Active; 'I' for Inactive)
REMARK    1  A    between atoms: C_2  and  O_3 
REMARK    2  A    between atoms: C_2  and  C_4 
REMARK    3  A    between atoms: C_7  and  N_8 
ROOT
HETATM    1  C   UNL     1      -3.555  -0.528  -0.071  1.00  0.00     0.037 A 
HETATM    2  C   UNL     1      -2.906  -1.069   1.020  1.00  0.00     0.020 A 
HETATM    3  C   UNL     1      -1.552  -0.875   1.229  1.00  0.00     0.032 A 
HETATM    4  C   UNL     1      -0.866  -0.139   0.339  1.00  0.00     0.059 A 
HETATM    5  C   UNL     1      -1.489   0.406  -0.748  1.00  0.00     0.032 A 
HETATM    6  C   UNL     1      -2.850   0.228  -0.987  1.00  0.00     0.020 A 
ENDROOT
BRANCH   4   7
HETATM    7  N   UNL     1       0.573   0.150   0.434  1.00  0.00    -0.222 N 
HETATM    8 SE   UNL     1       1.345   0.921   1.942  1.00  0.00     0.000 Se
HETATM    9  C   UNL     1       3.149   0.837   1.007  1.00  0.00    -0.010 A 
HETATM   10  C   UNL     1       4.384   1.245   1.467  1.00  0.00     0.013 A 
HETATM   11  C   UNL     1       2.798   0.285  -0.156  1.00  0.00     0.031 A 
HETATM   12  C   UNL     1       5.448   1.041   0.549  1.00  0.00     0.001 A 
HETATM   13  C   UNL     1       5.159   0.479  -0.659  1.00  0.00     0.001 A 
HETATM   14  C   UNL     1       3.925   0.104  -1.043  1.00  0.00     0.017 A 
HETATM   15  C   UNL     1       1.536  -0.046  -0.423  1.00  0.00     0.212 A 
HETATM   16  O   UNL     1       1.213  -0.587  -1.569  1.00  0.00    -0.169 OA
ENDBRANCH   4   7
BRANCH   1  17
HETATM   17  C   UNL     1      -4.992  -0.762  -0.252  1.00  0.00     0.176 C 
HETATM   18  O   UNL     1      -5.628  -1.448   0.581  1.00  0.00    -0.646 OA
BRANCH  17  19
HETATM   19  O   UNL     1      -5.690  -0.241  -1.330  1.00  0.00    -0.773 OA
HETATM   20  H   UNL     1      -5.245   0.277  -1.971  1.00  0.00     0.167 HD
ENDBRANCH  17  19
ENDBRANCH   1  17
TORSDOF 3
