REMARK  2 active torsions:
REMARK  status: ('A' for Active; 'I' for Inactive)
REMARK    1  A    between atoms: C_2  and  O_3 
REMARK    2  A    between atoms: C_2  and  C_4 
ROOT
HETATM    1  C   UNL     1      -2.214  -0.255  -1.363  1.00  0.00     0.261 C 
HETATM    2  N   UNL     1      -0.987  -0.094  -0.878  1.00  0.00    -0.253 N 
HETATM    3 SE   UNL     1      -0.037   1.648  -1.014  1.00  0.00     0.000 Se
HETATM    4  C   UNL     1       1.560   0.881  -0.030  1.00  0.00    -0.010 A 
HETATM    5  C   UNL     1       2.744   1.473   0.325  1.00  0.00     0.013 A 
HETATM    6  C   UNL     1       3.663   0.661   1.020  1.00  0.00     0.001 A 
HETATM    7  C   UNL     1       3.293  -0.626   1.273  1.00  0.00     0.001 A 
HETATM    8  C   UNL     1       2.111  -1.150   0.896  1.00  0.00     0.017 A 
HETATM    9  C   UNL     1       1.118  -0.391   0.182  1.00  0.00     0.030 A 
HETATM   10  C   UNL     1      -0.039  -0.847  -0.199  1.00  0.00     0.207 A 
HETATM   11  O   UNL     1      -0.485  -2.085   0.007  1.00  0.00    -0.170 OA
ENDROOT
BRANCH   1  12
HETATM   12  C   UNL     1      -3.258   0.107  -0.357  1.00  0.00     0.160 C 
HETATM   13  O   UNL     1      -3.598  -0.691   0.550  1.00  0.00    -0.649 OA
BRANCH  12  14
HETATM   14  O   UNL     1      -3.871   1.339  -0.412  1.00  0.00    -0.775 OA
HETATM   15  H   UNL     1      -3.633   1.951  -1.081  1.00  0.00     0.167 HD
ENDBRANCH  12  14
ENDBRANCH   1  12
TORSDOF 2
