REMARK  1 active torsions:
REMARK  status: ('A' for Active; 'I' for Inactive)
REMARK    1  A    between atoms: N_3  and  C_7 
ROOT
HETATM    1  S   UNL     1       0.457  -1.725  -0.250  1.00  0.00    -0.003 SA
HETATM    2  O   UNL     1       0.093   2.034   0.295  1.00  0.00    -0.266 OA
HETATM    3  N   UNL     1      -0.418  -0.242  -0.035  1.00  0.00    -0.246 N 
HETATM    4  C   UNL     1       1.844   0.462   0.069  1.00  0.00     0.051 A 
HETATM    5  C   UNL     1       2.006  -0.902  -0.128  1.00  0.00     0.038 A 
HETATM    6  C   UNL     1       0.426   0.870   0.127  1.00  0.00     0.270 A 
HETATM    7  C   UNL     1       2.935   1.312   0.194  1.00  0.00     0.018 A 
HETATM    8  C   UNL     1       3.273  -1.459  -0.208  1.00  0.00     0.021 A 
HETATM    9  C   UNL     1       4.214   0.759   0.115  1.00  0.00     0.001 A 
HETATM   10  C   UNL     1       4.382  -0.618  -0.085  1.00  0.00     0.001 A 
ENDROOT
BRANCH   3  11
HETATM   11  C   UNL     1      -1.804  -0.162  -0.025  1.00  0.00     0.049 A 
HETATM   12  C   UNL     1      -2.446   0.999  -0.468  1.00  0.00     0.030 A 
HETATM   13  C   UNL     1      -3.838   1.078  -0.458  1.00  0.00     0.002 A 
HETATM   14  C   UNL     1      -4.596  -0.002  -0.006  1.00  0.00     0.000 A 
HETATM   15  C   UNL     1      -3.961  -1.163   0.436  1.00  0.00     0.002 A 
HETATM   16  C   UNL     1      -2.568  -1.242   0.427  1.00  0.00     0.030 A 
ENDBRANCH   3  11
TORSDOF 1
