REMARK  1 active torsions:
REMARK  status: ('A' for Active; 'I' for Inactive)
REMARK       I    between atoms: C_2  and  N_3 
REMARK       I    between atoms: C_2  and  N_4 
REMARK       I    between atoms: N_4  and  C_5 
REMARK       I    between atoms: C_5  and  N_7 
REMARK    1  A    between atoms: N_7  and  C_8 
ROOT
HETATM    1  N   UNL     1      -4.198  -1.559  -0.767  1.00  0.00    -0.118 NA
HETATM    2  C   UNL     1      -3.870  -0.715   0.166  1.00  0.00     0.705 C 
HETATM    3  N   UNL     1      -4.804  -0.195   1.042  1.00  0.00    -0.233 N 
HETATM    4  N   UNL     1      -2.602  -0.236   0.407  1.00  0.00    -0.020 N 
HETATM    5  C   UNL     1      -1.380  -0.466  -0.196  1.00  0.00     0.712 C 
HETATM    6  N   UNL     1      -1.214  -1.267  -1.207  1.00  0.00    -0.117 NA
HETATM    7  N   UNL     1      -0.378   0.268   0.424  1.00  0.00    -0.190 N 
HETATM    8  H   UNL     1      -5.135  -1.846  -0.864  1.00  0.00     0.206 HD
HETATM    9  H   UNL     1      -5.749  -0.463   0.970  1.00  0.00     0.174 HD
HETATM   10  H   UNL     1      -4.525   0.442   1.738  1.00  0.00     0.174 HD
HETATM   11  H   UNL     1      -2.556   0.398   1.160  1.00  0.00     0.203 HD
HETATM   12  H   UNL     1      -1.984  -1.749  -1.585  1.00  0.00     0.206 HD
HETATM   13  H   UNL     1      -0.648   0.836   1.182  1.00  0.00     0.184 HD
ENDROOT
BRANCH   7  14
HETATM   14  C   UNL     1       0.989   0.280   0.075  1.00  0.00     0.051 A 
HETATM   15  C   UNL     1       1.532  -0.468  -0.973  1.00  0.00     0.030 A 
HETATM   16  C   UNL     1       2.893  -0.414  -1.270  1.00  0.00     0.004 A 
HETATM   17  C   UNL     1       3.737   0.395  -0.517  1.00  0.00     0.024 A 
HETATM   18  C   UNL     1       3.208   1.143   0.527  1.00  0.00     0.036 A 
HETATM   19 CL   UNL     1       4.239   2.145   1.463  1.00  0.00    -0.084 Cl
HETATM   20  C   UNL     1       1.849   1.089   0.823  1.00  0.00     0.053 A 
ENDBRANCH   7  14
TORSDOF 1
