REMARK  15 active torsions:
REMARK  status: ('A' for Active; 'I' for Inactive)
REMARK    1  A    between atoms: C_2  and  O_4 
REMARK    2  A    between atoms: O_4  and  C_5 
REMARK    3  A    between atoms: C_6  and  O_7 
REMARK    4  A    between atoms: O_7  and  C_8 
REMARK    5  A    between atoms: C_18  and  C_19 
REMARK    6  A    between atoms: C_23  and  C_24 
REMARK    7  A    between atoms: C_24  and  O_27 
REMARK    8  A    between atoms: C_29  and  O_30 
REMARK    9  A    between atoms: C_36  and  O_37 
REMARK   10  A    between atoms: O_37  and  C_38 
REMARK   11  A    between atoms: C_42  and  O_43 
REMARK   12  A    between atoms: C_44  and  O_45 
REMARK   13  A    between atoms: C_46  and  O_47 
REMARK   14  A    between atoms: C_54  and  O_55 
REMARK   15  A    between atoms: C_56  and  O_57 
ROOT
HETATM    1  C   UNL     1      -3.490   0.330  -0.215  1.00  0.00     0.133 C 
HETATM    2  C   UNL     1      -2.782   1.311   0.707  1.00  0.00     0.034 C 
HETATM    3  C   UNL     1      -1.515   0.748   1.329  1.00  0.00     0.013 C 
HETATM    4  C   UNL     1      -0.915  -0.373   0.514  1.00  0.00    -0.025 A 
HETATM    5  C   UNL     1      -0.549  -1.493   1.422  1.00  0.00     0.021 A 
HETATM    6  C   UNL     1       0.539  -0.844   0.643  1.00  0.00    -0.027 A 
HETATM    7  C   UNL     1       1.176  -1.846  -0.282  1.00  0.00     0.011 C 
HETATM    8  C   UNL     1       2.567  -2.177   0.217  1.00  0.00     0.011 C 
HETATM    9  C   UNL     1       3.466  -0.949   0.378  1.00  0.00    -0.028 C 
HETATM   10  C   UNL     1       3.947  -0.537  -1.000  1.00  0.00     0.016 C 
HETATM   11  C   UNL     1       4.572  -1.368   1.347  1.00  0.00     0.057 C 
HETATM   12  C   UNL     1       4.129  -0.965   2.747  1.00  0.00     0.126 C 
HETATM   13  C   UNL     1       2.815  -0.217   2.582  1.00  0.00     0.042 C 
HETATM   14  C   UNL     1       2.758   0.208   1.117  1.00  0.00    -0.029 C 
HETATM   15  C   UNL     1       3.517   1.524   1.002  1.00  0.00     0.016 C 
HETATM   16  C   UNL     1       1.308   0.431   0.693  1.00  0.00     0.006 C 
HETATM   17  C   UNL     1       1.195   1.048  -0.722  1.00  0.00     0.038 C 
HETATM   18  C   UNL     1      -0.199   1.007  -1.392  1.00  0.00     0.131 C 
HETATM   19  C   UNL     1      -1.101  -0.186  -0.956  1.00  0.00     0.034 C 
HETATM   20  C   UNL     1      -2.579  -0.170  -1.348  1.00  0.00    -0.015 C 
HETATM   21  C   UNL     1      -2.951  -1.587  -1.752  1.00  0.00     0.018 C 
HETATM   22  C   UNL     1      -2.830   0.683  -2.575  1.00  0.00     0.018 C 
ENDROOT
BRANCH   1  23
HETATM   23  O   UNL     1      -3.980  -0.749   0.577  1.00  0.00    -0.352 OA
BRANCH  23  24
HETATM   24  C   UNL     1      -5.363  -0.542   0.802  1.00  0.00     0.292 C 
HETATM   25  C   UNL     1      -6.076  -1.866   1.116  1.00  0.00     0.218 C 
HETATM   26  C   UNL     1      -5.707  -2.377   2.499  1.00  0.00     0.183 C 
HETATM   27  C   UNL     1      -5.846  -1.270   3.524  1.00  0.00     0.173 C 
HETATM   28  C   UNL     1      -5.088  -0.035   3.080  1.00  0.00     0.205 C 
HETATM   29  O   UNL     1      -5.593   0.427   1.826  1.00  0.00    -0.356 OA
BRANCH  25  30
HETATM   30  O   UNL     1      -7.502  -1.660   1.100  1.00  0.00    -0.309 OA
BRANCH  30  31
HETATM   31  C   UNL     1      -7.995  -1.678  -0.166  1.00  0.00     0.255 C 
HETATM   32  C   UNL     1      -9.473  -1.470  -0.136  1.00  0.00     0.126 C 
HETATM   33  O   UNL     1      -7.334  -1.838  -1.181  1.00  0.00    -0.266 OA
ENDBRANCH  30  31
ENDBRANCH  25  30
BRANCH  26  34
HETATM   34  O   UNL     1      -4.396  -2.917   2.491  1.00  0.00    -0.390 OA
HETATM   35  H   UNL     1      -3.763  -2.225   2.246  1.00  0.00     0.210 HD
ENDBRANCH  26  34
BRANCH  27  36
HETATM   36  O   UNL     1      -5.389  -1.685   4.799  1.00  0.00    -0.391 OA
HETATM   37  H   UNL     1      -4.446  -1.906   4.748  1.00  0.00     0.210 HD
ENDBRANCH  27  36
ENDBRANCH  23  24
ENDBRANCH   1  23
BRANCH  18  38
HETATM   38  O   UNL     1      -0.838   2.263  -1.202  1.00  0.00    -0.353 OA
BRANCH  38  39
HETATM   39  C   UNL     1      -0.154   3.252  -1.941  1.00  0.00     0.291 C 
HETATM   40  O   UNL     1      -0.807   3.595  -3.156  1.00  0.00    -0.351 OA
HETATM   41  C   UNL     1      -1.793   4.603  -2.973  1.00  0.00     0.152 C 
HETATM   42  C   UNL     1      -3.055   4.066  -2.349  1.00  0.00     0.042 C 
HETATM   43  C   UNL     1      -1.241   5.897  -2.395  1.00  0.00     0.178 C 
HETATM   44  C   UNL     1       0.182   5.703  -1.918  1.00  0.00     0.183 C 
HETATM   45  C   UNL     1       0.354   4.434  -1.118  1.00  0.00     0.204 C 
BRANCH  43  46
HETATM   46  O   UNL     1      -2.089   6.456  -1.411  1.00  0.00    -0.390 OA
HETATM   47  H   UNL     1      -2.160   5.845  -0.661  1.00  0.00     0.210 HD
ENDBRANCH  43  46
BRANCH  44  48
HETATM   48  O   UNL     1       0.691   6.837  -1.242  1.00  0.00    -0.390 OA
HETATM   49  H   UNL     1       0.182   6.984  -0.429  1.00  0.00     0.210 HD
ENDBRANCH  44  48
BRANCH  45  50
HETATM   50  O   UNL     1      -0.274   4.520   0.150  1.00  0.00    -0.388 OA
HETATM   51  H   UNL     1      -1.226   4.657   0.031  1.00  0.00     0.210 HD
ENDBRANCH  45  50
ENDBRANCH  38  39
ENDBRANCH  18  38
BRANCH  11  52
HETATM   52  C   UNL     1       6.042  -1.339   0.975  1.00  0.00     0.065 C 
HETATM   53  C   UNL     1       6.552   0.075   0.798  1.00  0.00     0.046 C 
HETATM   54  C   UNL     1       6.881  -2.060   2.013  1.00  0.00     0.041 C 
HETATM   55  C   UNL     1       7.433  -3.283   1.328  1.00  0.00     0.038 C 
HETATM   56  C   UNL     1       6.686  -3.350   0.016  1.00  0.00     0.156 C 
HETATM   57  O   UNL     1       6.234  -2.026  -0.267  1.00  0.00    -0.372 OA
BRANCH  56  58
HETATM   58  C   UNL     1       7.500  -3.942  -1.127  1.00  0.00     0.076 C 
HETATM   59  C   UNL     1       6.777  -3.798  -2.446  1.00  0.00     0.048 C 
HETATM   60  C   UNL     1       7.765  -5.408  -0.873  1.00  0.00     0.048 C 
BRANCH  58  61
HETATM   61  O   UNL     1       8.757  -3.290  -1.244  1.00  0.00    -0.388 OA
HETATM   62  H   UNL     1       8.617  -2.345  -1.407  1.00  0.00     0.210 HD
ENDBRANCH  58  61
ENDBRANCH  56  58
ENDBRANCH  11  52
BRANCH  12  63
HETATM   63  O   UNL     1       5.060  -0.120   3.395  1.00  0.00    -0.395 OA
HETATM   64  H   UNL     1       5.174   0.692   2.878  1.00  0.00     0.210 HD
ENDBRANCH  12  63
TORSDOF 15
