REMARK  11 active torsions:
REMARK  status: ('A' for Active; 'I' for Inactive)
REMARK    1  A    between atoms: N_1  and  C_2 
REMARK    2  A    between atoms: N_10  and  C_11 
REMARK    3  A    between atoms: C_13  and  C_14 
REMARK    4  A    between atoms: C_14  and  S_15 
REMARK    5  A    between atoms: S_15  and  C_16 
REMARK    6  A    between atoms: C_16  and  C_17 
REMARK    7  A    between atoms: C_17  and  N_18 
REMARK    8  A    between atoms: C_17  and  C_19 
REMARK    9  A    between atoms: C_19  and  O_21 
REMARK   10  A    between atoms: C_22  and  O_23 
REMARK   11  A    between atoms: C_24  and  O_25 
ROOT
HETATM    1  C   UNK     1      -1.056   0.039  -0.558  1.00  0.00     0.262 C 
HETATM    2  O   UNK     1      -0.101  -0.613   0.293  1.00  0.00    -0.355 OA
HETATM    3  C   UNK     1       0.947   0.336   0.538  1.00  0.00     0.165 C 
HETATM    4  C   UNK     1       0.812   1.452  -0.487  1.00  0.00     0.180 C 
HETATM    5  C   UNK     1      -0.689   1.514  -0.670  1.00  0.00     0.198 C 
ENDROOT
BRANCH   1   6
HETATM    6  N   UNK     1      -2.399  -0.237  -0.125  1.00  0.00    -0.294 N 
HETATM    7  C   UNK     1      -3.483  -0.251  -0.951  1.00  0.00     0.167 A 
HETATM    8  N   UNK     1      -3.504   0.002  -2.265  1.00  0.00    -0.222 NA
HETATM    9  C   UNK     1      -4.553  -0.576  -0.132  1.00  0.00     0.149 A 
HETATM   10  C   UNK     1      -4.754  -0.105  -2.756  1.00  0.00     0.237 A 
HETATM   11  N   UNK     1      -5.883  -0.413  -2.091  1.00  0.00    -0.222 NA
HETATM   12  C   UNK     1      -5.811  -0.655  -0.749  1.00  0.00     0.155 A 
HETATM   13  N   UNK     1      -4.125  -0.746   1.169  1.00  0.00    -0.236 NA
HETATM   14  C   UNK     1      -2.826  -0.531   1.137  1.00  0.00     0.214 A 
BRANCH  12  15
HETATM   15  N   UNK     1      -6.968  -0.969  -0.021  1.00  0.00    -0.382 N 
HETATM   16  H   UNK     1      -7.839  -1.018  -0.477  1.00  0.00     0.157 HD
HETATM   17  H   UNK     1      -6.909  -1.139   0.947  1.00  0.00     0.157 HD
ENDBRANCH  12  15
ENDBRANCH   1   6
BRANCH   5  18
HETATM   18  O   UNK     1      -1.218   2.267   0.419  1.00  0.00    -0.388 OA
HETATM   19  H   UNK     1      -0.914   1.883   1.256  1.00  0.00     0.210 HD
ENDBRANCH   5  18
BRANCH   3  20
HETATM   20  C   UNK     1       2.291  -0.360   0.516  1.00  0.00     0.108 C 
BRANCH  20  21
HETATM   21  S   UNK     1       3.302   0.322   1.852  1.00  0.00    -0.164 SA
BRANCH  21  22
HETATM   22  C   UNK     1       4.716  -0.803   1.684  1.00  0.00     0.120 C 
BRANCH  22  23
HETATM   23  C   UNK     1       5.791  -0.149   0.843  1.00  0.00     0.323 C 
BRANCH  23  24
HETATM   24  N   UNK     1       5.693  -0.603  -0.539  1.00  0.00     0.093 N 
HETATM   25  H   UNK     1       5.808  -1.616  -0.574  1.00  0.00     0.314 HD
HETATM   26  H   UNK     1       6.423  -0.158  -1.096  1.00  0.00     0.314 HD
ENDBRANCH  23  24
BRANCH  23  27
HETATM   27  C   UNK     1       7.133  -0.532   1.400  1.00  0.00     0.174 C 
HETATM   28  O   UNK     1       7.912   0.262   1.912  1.00  0.00    -0.648 OA
BRANCH  27  29
HETATM   29  O   UNK     1       7.380  -1.863   1.307  1.00  0.00    -0.775 OA
HETATM   30  H   UNK     1       6.750  -2.429   0.905  1.00  0.00     0.167 HD
ENDBRANCH  27  29
ENDBRANCH  23  27
ENDBRANCH  22  23
ENDBRANCH  21  22
ENDBRANCH  20  21
ENDBRANCH   3  20
BRANCH   4  31
HETATM   31  O   UNK     1       1.391   1.051  -1.727  1.00  0.00    -0.390 OA
HETATM   32  H   UNK     1       0.984   0.221  -2.021  1.00  0.00     0.210 HD
ENDBRANCH   4  31
TORSDOF 11
