REMARK  18 active torsions:
REMARK  status: ('A' for Active; 'I' for Inactive)
REMARK    1  A    between atoms: C_5  and  C_6 
REMARK    2  A    between atoms: C_6  and  O_8 
REMARK    3  A    between atoms: C_20  and  O_21 
REMARK    4  A    between atoms: C_22  and  O_23 
REMARK    5  A    between atoms: O_23  and  C_24 
REMARK    6  A    between atoms: C_26  and  C_27 
REMARK    7  A    between atoms: C_27  and  O_29 
REMARK    8  A    between atoms: C_30  and  O_31 
REMARK    9  A    between atoms: C_32  and  O_33 
REMARK   10  A    between atoms: O_33  and  C_34 
REMARK   11  A    between atoms: C_36  and  C_37 
REMARK   12  A    between atoms: C_37  and  O_39 
REMARK   13  A    between atoms: C_40  and  O_41 
REMARK   14  A    between atoms: C_42  and  O_43 
REMARK   15  A    between atoms: C_44  and  O_45 
REMARK   16  A    between atoms: C_46  and  O_47 
REMARK   17  A    between atoms: C_48  and  C_50 
REMARK   18  A    between atoms: C_50  and  O_52 
ROOT
HETATM    1  C   UNL     1      11.313  -0.119   0.388  1.00  0.00     0.014 C 
HETATM    2  C   UNL     1      10.121   0.445   0.172  1.00  0.00    -0.088 C 
HETATM    3  C   UNL     1       9.829   1.839   0.613  1.00  0.00     0.034 C 
HETATM    4  C   UNL     1       8.348   2.067   0.876  1.00  0.00     0.025 C 
HETATM    5  C   UNL     1       7.589   0.841   1.394  1.00  0.00     0.053 C 
HETATM    6  C   UNL     1       6.120   1.260   1.517  1.00  0.00     0.022 C 
HETATM    7  C   UNL     1       5.092   0.135   1.565  1.00  0.00     0.016 C 
HETATM    8  C   UNL     1       5.397  -1.117   0.732  1.00  0.00    -0.013 C 
HETATM    9  C   UNL     1       5.890  -2.177   1.714  1.00  0.00     0.021 C 
HETATM   10  C   UNL     1       6.512  -0.757  -0.225  1.00  0.00    -0.069 C 
HETATM   11  C   UNL     1       6.305  -0.564  -1.536  1.00  0.00    -0.022 C 
HETATM   12  C   UNL     1       4.985  -0.709  -2.197  1.00  0.00     0.033 C 
HETATM   13  C   UNL     1       3.812  -0.775  -1.216  1.00  0.00     0.007 C 
HETATM   14  C   UNL     1       2.460  -1.016  -1.911  1.00  0.00    -0.032 C 
HETATM   15  C   UNL     1       2.664  -1.785  -3.207  1.00  0.00     0.016 C 
HETATM   16  C   UNL     1       1.894   0.359  -2.236  1.00  0.00     0.044 C 
HETATM   17  C   UNL     1       0.467   0.341  -2.738  1.00  0.00     0.149 C 
HETATM   18  C   UNL     1      -0.457  -0.406  -1.781  1.00  0.00     0.172 C 
HETATM   19  C   UNL     1       0.030  -1.826  -1.483  1.00  0.00     0.074 C 
HETATM   20  C   UNL     1      -0.836  -2.439  -0.385  1.00  0.00     0.030 C 
HETATM   21  C   UNL     1       1.490  -1.789  -1.009  1.00  0.00     0.015 C 
HETATM   22  C   UNL     1       1.617  -1.305   0.420  1.00  0.00     0.007 C 
HETATM   23  C   UNL     1       2.961  -1.679   1.002  1.00  0.00     0.011 C 
HETATM   24  C   UNL     1       4.122  -1.647   0.009  1.00  0.00    -0.028 C 
HETATM   25  C   UNL     1       4.337  -3.085  -0.461  1.00  0.00     0.016 C 
HETATM   26  C   UNL     1       7.788  -0.368   0.457  1.00  0.00     0.038 C 
HETATM   27  C   UNL     1       9.003  -0.304  -0.455  1.00  0.00     0.043 C 
ENDROOT
BRANCH  18  28
HETATM   28  O   UNL     1      -1.803  -0.364  -2.237  1.00  0.00    -0.349 OA
BRANCH  28  29
HETATM   29  C   UNL     1      -2.685  -0.243  -1.136  1.00  0.00     0.292 C 
HETATM   30  O   UNL     1      -2.640   1.047  -0.545  1.00  0.00    -0.340 OA
HETATM   31  C   UNL     1      -3.232   0.966   0.747  1.00  0.00     0.253 C 
HETATM   32  C   UNL     1      -4.631   0.368   0.722  1.00  0.00     0.189 C 
HETATM   33  C   UNL     1      -5.112   0.143  -0.705  1.00  0.00     0.190 C 
HETATM   34  C   UNL     1      -4.097  -0.625  -1.548  1.00  0.00     0.205 C 
BRANCH  31  35
HETATM   35  C   UNL     1      -3.389   2.327   1.378  1.00  0.00     0.172 C 
HETATM   36  O   UNL     1      -4.159   3.197   0.996  1.00  0.00    -0.648 OA
BRANCH  35  37
HETATM   37  O   UNL     1      -2.591   2.430   2.470  1.00  0.00    -0.774 OA
HETATM   38  H   UNL     1      -2.025   1.721   2.704  1.00  0.00     0.167 HD
ENDBRANCH  35  37
ENDBRANCH  31  35
BRANCH  32  39
HETATM   39  O   UNL     1      -4.611  -0.837   1.475  1.00  0.00    -0.390 OA
HETATM   40  H   UNL     1      -3.980  -1.457   1.077  1.00  0.00     0.210 HD
ENDBRANCH  32  39
BRANCH  33  41
HETATM   41  O   UNL     1      -6.410  -0.428  -0.815  1.00  0.00    -0.348 OA
BRANCH  41  42
HETATM   42  C   UNL     1      -7.347   0.294  -0.042  1.00  0.00     0.292 C 
HETATM   43  O   UNL     1      -8.161  -0.610   0.687  1.00  0.00    -0.340 OA
HETATM   44  C   UNL     1      -9.031   0.042   1.585  1.00  0.00     0.253 C 
HETATM   45  C   UNL     1      -9.199   1.541   1.401  1.00  0.00     0.189 C 
HETATM   46  C   UNL     1      -9.302   1.866  -0.078  1.00  0.00     0.183 C 
HETATM   47  C   UNL     1      -8.192   1.228  -0.897  1.00  0.00     0.204 C 
BRANCH  44  48
HETATM   48  C   UNL     1      -8.922  -0.319   3.049  1.00  0.00     0.172 C 
HETATM   49  O   UNL     1      -9.882  -0.470   3.794  1.00  0.00    -0.648 OA
BRANCH  48  50
HETATM   50  O   UNL     1      -7.629  -0.439   3.436  1.00  0.00    -0.774 OA
HETATM   51  H   UNL     1      -6.940  -0.311   2.814  1.00  0.00     0.167 HD
ENDBRANCH  48  50
ENDBRANCH  44  48
BRANCH  45  52
HETATM   52  O   UNL     1      -8.057   2.213   1.919  1.00  0.00    -0.390 OA
HETATM   53  H   UNL     1      -7.265   1.917   1.443  1.00  0.00     0.210 HD
ENDBRANCH  45  52
BRANCH  46  54
HETATM   54  O   UNL     1     -10.545   1.368  -0.559  1.00  0.00    -0.390 OA
HETATM   55  H   UNL     1     -10.574   0.405  -0.444  1.00  0.00     0.210 HD
ENDBRANCH  46  54
BRANCH  47  56
HETATM   56  O   UNL     1      -7.367   2.252  -1.430  1.00  0.00    -0.388 OA
HETATM   57  H   UNL     1      -6.974   2.762  -0.704  1.00  0.00     0.210 HD
ENDBRANCH  47  56
ENDBRANCH  41  42
ENDBRANCH  33  41
BRANCH  34  58
HETATM   58  O   UNL     1      -4.215  -2.030  -1.350  1.00  0.00    -0.388 OA
HETATM   59  H   UNL     1      -4.038  -2.241  -0.420  1.00  0.00     0.210 HD
ENDBRANCH  34  58
ENDBRANCH  28  29
ENDBRANCH  18  28
BRANCH  17  60
HETATM   60  O   UNL     1       0.049   1.692  -2.855  1.00  0.00    -0.393 OA
HETATM   61  H   UNL     1       0.102   2.123  -1.987  1.00  0.00     0.210 HD
ENDBRANCH  17  60
BRANCH  19  62
HETATM   62  C   UNL     1      -0.083  -2.812  -2.638  1.00  0.00     0.151 C 
HETATM   63  O   UNL     1       0.152  -4.010  -2.529  1.00  0.00    -0.649 OA
BRANCH  62  64
HETATM   64  O   UNL     1      -0.409  -2.237  -3.816  1.00  0.00    -0.776 OA
HETATM   65  H   UNL     1      -0.581  -1.317  -3.857  1.00  0.00     0.167 HD
ENDBRANCH  62  64
ENDBRANCH  19  62
BRANCH   5  66
HETATM   66  C   UNL     1       8.076   0.557   2.807  1.00  0.00     0.149 C 
HETATM   67  O   UNL     1       8.088   1.390   3.711  1.00  0.00    -0.649 OA
BRANCH  66  68
HETATM   68  O   UNL     1       8.487  -0.730   2.982  1.00  0.00    -0.776 OA
HETATM   69  H   UNL     1       8.461  -1.332   2.265  1.00  0.00     0.167 HD
ENDBRANCH  66  68
ENDBRANCH   5  66
TORSDOF 18
