REMARK  12 active torsions:
REMARK  status: ('A' for Active; 'I' for Inactive)
REMARK    1  A    between atoms: N_1  and  C_2 
REMARK    2  A    between atoms: N_10  and  C_11 
REMARK    3  A    between atoms: C_13  and  C_14 
REMARK    4  A    between atoms: C_14  and  S_15 
REMARK    5  A    between atoms: S_15  and  C_16 
REMARK    6  A    between atoms: C_16  and  C_17 
REMARK    7  A    between atoms: C_17  and  C_18 
REMARK    8  A    between atoms: C_18  and  N_19 
REMARK    9  A    between atoms: C_18  and  C_20 
REMARK   10  A    between atoms: C_20  and  O_22 
REMARK   11  A    between atoms: C_23  and  O_24 
REMARK   12  A    between atoms: C_25  and  O_26 
ROOT
HETATM    1  C   UNK     1      -1.175  -0.767  -1.295  1.00  0.00     0.262 C 
HETATM    2  O   UNK     1       0.259  -0.861  -1.243  1.00  0.00    -0.355 OA
HETATM    3  C   UNK     1       0.765  -0.376  -2.503  1.00  0.00     0.165 C 
HETATM    4  C   UNK     1      -0.446  -0.108  -3.373  1.00  0.00     0.180 C 
HETATM    5  C   UNK     1      -1.553   0.210  -2.398  1.00  0.00     0.198 C 
ENDROOT
BRANCH   1   6
HETATM    6  N   UNK     1      -1.711  -0.469   0.004  1.00  0.00    -0.294 N 
HETATM    7  C   UNK     1      -2.969  -0.801   0.408  1.00  0.00     0.167 A 
HETATM    8  N   UNK     1      -3.907  -1.437  -0.309  1.00  0.00    -0.222 NA
HETATM    9  C   UNK     1      -3.064  -0.330   1.708  1.00  0.00     0.149 A 
HETATM   10  C   UNK     1      -5.034  -1.597   0.413  1.00  0.00     0.237 A 
HETATM   11  N   UNK     1      -5.272  -1.198   1.678  1.00  0.00    -0.222 NA
HETATM   12  C   UNK     1      -4.285  -0.549   2.364  1.00  0.00     0.155 A 
HETATM   13  N   UNK     1      -1.884   0.278   2.083  1.00  0.00    -0.236 NA
HETATM   14  C   UNK     1      -1.093   0.177   1.035  1.00  0.00     0.214 A 
BRANCH  12  15
HETATM   15  N   UNK     1      -4.498  -0.117   3.683  1.00  0.00    -0.382 N 
HETATM   16  H   UNK     1      -5.364  -0.282   4.121  1.00  0.00     0.157 HD
HETATM   17  H   UNK     1      -3.782   0.352   4.169  1.00  0.00     0.157 HD
ENDBRANCH  12  15
ENDBRANCH   1   6
BRANCH   5  18
HETATM   18  O   UNK     1      -1.427   1.556  -1.948  1.00  0.00    -0.388 OA
HETATM   19  H   UNK     1      -0.532   1.698  -1.600  1.00  0.00     0.210 HD
ENDBRANCH   5  18
BRANCH   3  20
HETATM   20  C   UNK     1       1.624   0.853  -2.263  1.00  0.00     0.108 C 
BRANCH  20  21
HETATM   21  S   UNK     1       3.349   0.350  -2.019  1.00  0.00    -0.166 SA
BRANCH  21  22
HETATM   22  C   UNK     1       3.198  -0.274  -0.325  1.00  0.00     0.076 C 
BRANCH  22  23
HETATM   23  C   UNK     1       3.195   0.892   0.636  1.00  0.00     0.056 C 
BRANCH  23  24
HETATM   24  C   UNK     1       4.595   1.395   0.915  1.00  0.00     0.315 C 
BRANCH  24  25
HETATM   25  N   UNK     1       4.495   2.574   1.764  1.00  0.00     0.093 N 
HETATM   26  H   UNK     1       4.036   2.324   2.640  1.00  0.00     0.314 HD
HETATM   27  H   UNK     1       3.950   3.292   1.286  1.00  0.00     0.314 HD
ENDBRANCH  24  25
BRANCH  24  28
HETATM   28  C   UNK     1       5.406   0.359   1.647  1.00  0.00     0.173 C 
HETATM   29  O   UNK     1       5.002  -0.392   2.523  1.00  0.00    -0.648 OA
BRANCH  28  30
HETATM   30  O   UNK     1       6.676   0.350   1.167  1.00  0.00    -0.775 OA
HETATM   31  H   UNK     1       6.927   0.951   0.493  1.00  0.00     0.167 HD
ENDBRANCH  28  30
ENDBRANCH  24  28
ENDBRANCH  23  24
ENDBRANCH  22  23
ENDBRANCH  21  22
ENDBRANCH  20  21
ENDBRANCH   3  20
BRANCH   4  32
HETATM   32  O   UNK     1      -0.246   0.887  -4.351  1.00  0.00    -0.390 OA
HETATM   33  H   UNK     1      -0.019   1.725  -3.918  1.00  0.00     0.210 HD
ENDBRANCH   4  32
TORSDOF 12
