REMARK WARNING: 32 MAX_TORS EXCEEDED!!!
REMARK  34 active torsions:
REMARK  status: ('A' for Active; 'I' for Inactive)
REMARK       I    between atoms: C_2  and  N_4 
REMARK    1  A    between atoms: N_4  and  CA_5 
REMARK    2  A    between atoms: CA_5  and  C_6 
REMARK    3  A    between atoms: CA_5  and  C_8 
REMARK    4  A    between atoms: C_6  and  O_7 
REMARK    5  A    between atoms: C_8  and  O_9 
REMARK    6  A    between atoms: C_8  and  C_55 
REMARK    7  A    between atoms: O_9  and  C_10 
REMARK    8  A    between atoms: C_12  and  C_13 
REMARK    9  A    between atoms: C_13  and  O_14 
REMARK   10  A    between atoms: C_15  and  O_16 
REMARK   11  A    between atoms: O_16  and  C_17 
REMARK   12  A    between atoms: C_19  and  C_20 
REMARK   13  A    between atoms: C_20  and  O_21 
REMARK   14  A    between atoms: C_22  and  O_23 
REMARK   15  A    between atoms: C_24  and  O_25 
REMARK   16  A    between atoms: C_26  and  N_27 
REMARK       I    between atoms: N_27  and  C_28 
REMARK   17  A    between atoms: C_31  and  O_32 
REMARK   18  A    between atoms: O_32  and  C_33 
REMARK   19  A    between atoms: C_33  and  C_34 
REMARK   20  A    between atoms: C_34  and  O_36 
REMARK   21  A    between atoms: C_38  and  O_39 
REMARK   22  A    between atoms: C_40  and  N_41 
REMARK       I    between atoms: N_41  and  C_42 
REMARK   23  A    between atoms: C_45  and  C_46 
REMARK   24  A    between atoms: C_46  and  O_47 
REMARK   25  A    between atoms: C_46  and  C_48 
REMARK   26  A    between atoms: C_48  and  O_49 
REMARK   27  A    between atoms: C_48  and  C_50 
REMARK   28  A    between atoms: C_50  and  O_51 
REMARK   29  A    between atoms: C_53  and  O_54 
REMARK   30  A    between atoms: C_55  and  O_56 
REMARK   31  A    between atoms: C_55  and  C_57 
REMARK   32  A    between atoms: C_57  and  O_58 
REMARK   33  A    between atoms: C_57  and  C_59 
REMARK   34  A    between atoms: C_59  and  O_60 
ROOT
HETATM    1  C   UNL     1      -2.622  -0.864   1.253  1.00  0.00     0.292 C 
HETATM    2  O   UNL     1      -3.197   0.402   0.955  1.00  0.00    -0.348 OA
HETATM    3  C   UNL     1      -2.481   1.149  -0.025  1.00  0.00     0.180 C 
HETATM    4  C   UNL     1      -0.983   1.257   0.231  1.00  0.00     0.187 C 
HETATM    5  C   UNL     1      -0.387  -0.115   0.525  1.00  0.00     0.191 C 
HETATM    6  C   UNL     1      -1.154  -0.765   1.657  1.00  0.00     0.205 C 
ENDROOT
BRANCH   5   7
HETATM    7  O   UNL     1       1.003  -0.008   0.854  1.00  0.00    -0.336 OA
BRANCH   7   8
HETATM    8  C   UNL     1       1.863  -0.496  -0.187  1.00  0.00     0.256 C 
HETATM    9  C   UNL     1       1.556  -1.972  -0.372  1.00  0.00     0.114 C 
HETATM   10  C   UNL     1       2.528  -2.626  -1.303  1.00  0.00     0.149 C 
HETATM   11  C   UNL     1       3.991  -2.359  -0.986  1.00  0.00     0.145 C 
HETATM   12  C   UNL     1       4.212  -0.911  -0.541  1.00  0.00     0.182 C 
HETATM   13  O   UNL     1       3.186  -0.414   0.321  1.00  0.00    -0.336 OA
BRANCH   8  14
HETATM   14  C   UNL     1       1.571   0.280  -1.506  1.00  0.00     0.205 C 
HETATM   15  O   UNL     1       0.626   0.028  -2.253  1.00  0.00    -0.646 OA
BRANCH  14  16
HETATM   16  O   UNL     1       2.428   1.315  -1.686  1.00  0.00    -0.772 OA
HETATM   17  H   UNL     1       3.129   1.453  -1.080  1.00  0.00     0.167 HD
ENDBRANCH  14  16
ENDBRANCH   8  14
BRANCH  10  18
HETATM   18  O   UNL     1       2.275  -4.019  -1.317  1.00  0.00    -0.393 OA
HETATM   19  H   UNL     1       2.425  -4.383  -0.431  1.00  0.00     0.210 HD
ENDBRANCH  10  18
BRANCH  11  20
HETATM   20  N   UNL     1       4.774  -2.653  -2.184  1.00  0.00    -0.352 N 
HETATM   21  C   UNL     1       4.606  -1.939  -3.349  1.00  0.00     0.214 C 
HETATM   22  C   UNL     1       5.450  -2.457  -4.465  1.00  0.00     0.117 C 
HETATM   23  O   UNL     1       3.860  -0.972  -3.446  1.00  0.00    -0.274 OA
HETATM   24  H   UNL     1       5.439  -3.379  -2.157  1.00  0.00     0.163 HD
ENDBRANCH  11  20
BRANCH  12  25
HETATM   25  C   UNL     1       5.534  -0.621   0.167  1.00  0.00     0.180 C 
BRANCH  25  26
HETATM   26  O   UNL     1       5.760   0.784   0.096  1.00  0.00    -0.390 OA
HETATM   27  H   UNL     1       5.863   1.049  -0.831  1.00  0.00     0.210 HD
ENDBRANCH  25  26
BRANCH  25  28
HETATM   28  C   UNL     1       6.758  -1.364  -0.320  1.00  0.00     0.173 C 
BRANCH  28  29
HETATM   29  O   UNL     1       6.677  -2.714   0.129  1.00  0.00    -0.391 OA
HETATM   30  H   UNL     1       6.655  -2.732   1.099  1.00  0.00     0.210 HD
ENDBRANCH  28  29
BRANCH  28  31
HETATM   31  C   UNL     1       8.034  -0.753   0.222  1.00  0.00     0.198 C 
BRANCH  31  32
HETATM   32  O   UNL     1       9.144  -1.325  -0.451  1.00  0.00    -0.398 OA
HETATM   33  H   UNL     1       9.152  -2.284  -0.305  1.00  0.00     0.209 HD
ENDBRANCH  31  32
ENDBRANCH  28  31
ENDBRANCH  25  28
ENDBRANCH  12  25
ENDBRANCH   7   8
ENDBRANCH   5   7
BRANCH   4  34
HETATM   34  O   UNL     1      -0.750   2.142   1.327  1.00  0.00    -0.348 OA
BRANCH  34  35
HETATM   35  C   UNL     1      -0.716   3.466   0.809  1.00  0.00     0.286 C 
HETATM   36  O   UNL     1       0.362   3.631  -0.102  1.00  0.00    -0.349 OA
HETATM   37  C   UNL     1       0.168   4.820  -0.873  1.00  0.00     0.179 C 
HETATM   38  C   UNL     1      -0.311   6.013  -0.048  1.00  0.00     0.180 C 
HETATM   39  C   UNL     1      -0.063   5.803   1.438  1.00  0.00     0.177 C 
HETATM   40  C   UNL     1      -0.642   4.487   1.943  1.00  0.00     0.170 C 
BRANCH  37  41
HETATM   41  C   UNL     1       1.462   5.144  -1.593  1.00  0.00     0.198 C 
BRANCH  41  42
HETATM   42  O   UNL     1       1.250   6.259  -2.447  1.00  0.00    -0.398 OA
HETATM   43  H   UNL     1       0.558   6.044  -3.093  1.00  0.00     0.209 HD
ENDBRANCH  41  42
ENDBRANCH  37  41
BRANCH  38  44
HETATM   44  O   UNL     1      -1.719   6.123  -0.252  1.00  0.00    -0.390 OA
HETATM   45  H   UNL     1      -2.153   5.306   0.040  1.00  0.00     0.210 HD
ENDBRANCH  38  44
BRANCH  39  46
HETATM   46  O   UNL     1       1.339   5.817   1.681  1.00  0.00    -0.391 OA
HETATM   47  H   UNL     1       1.759   5.090   1.194  1.00  0.00     0.210 HD
ENDBRANCH  39  46
BRANCH  40  48
HETATM   48  N   UNL     1      -1.952   4.660   2.545  1.00  0.00    -0.349 N 
HETATM   49  C   UNL     1      -2.160   5.545   3.573  1.00  0.00     0.214 C 
HETATM   50  C   UNL     1      -3.582   5.538   4.027  1.00  0.00     0.117 C 
HETATM   51  O   UNL     1      -1.301   6.275   4.051  1.00  0.00    -0.274 OA
HETATM   52  H   UNL     1      -2.710   4.131   2.207  1.00  0.00     0.163 HD
ENDBRANCH  40  48
ENDBRANCH  34  35
ENDBRANCH   4  34
BRANCH   6  53
HETATM   53  O   UNL     1      -0.639  -2.068   1.901  1.00  0.00    -0.388 OA
HETATM   54  H   UNL     1      -0.725  -2.605   1.097  1.00  0.00     0.210 HD
ENDBRANCH   6  53
BRANCH   3  55
HETATM   55  C   UNL     1      -2.811   0.721  -1.439  1.00  0.00     0.198 C 
BRANCH  55  56
HETATM   56  O   UNL     1      -2.193   1.611  -2.353  1.00  0.00    -0.398 OA
HETATM   57  H   UNL     1      -2.520   2.511  -2.200  1.00  0.00     0.209 HD
ENDBRANCH  55  56
ENDBRANCH   3  55
BRANCH   1  58
HETATM   58  O   UNL     1      -2.821  -1.764   0.169  1.00  0.00    -0.348 OA
BRANCH  58  59
HETATM   59  C   UNL     1      -4.184  -2.181   0.110  1.00  0.00     0.180 C 
BRANCH  59  60
HETATM   60  CA  UNL     1      -4.679  -2.977   1.314  1.00  0.00     0.139 C 
BRANCH  60  61
HETATM   61  N   UNL     1      -3.646  -3.816   1.869  1.00  0.00    -0.352 N 
HETATM   62  C   UNL     1      -3.919  -5.140   2.120  1.00  0.00     0.214 C 
HETATM   63  C   UNL     1      -2.736  -5.853   2.680  1.00  0.00     0.117 C 
HETATM   64  O   UNL     1      -4.991  -5.688   1.902  1.00  0.00    -0.274 OA
HETATM   65  H   UNL     1      -2.756  -3.445   2.065  1.00  0.00     0.163 HD
ENDBRANCH  60  61
BRANCH  60  66
HETATM   66  C   UNL     1      -5.284  -2.045   2.344  1.00  0.00     0.192 C 
BRANCH  66  67
HETATM   67  O   UNL     1      -6.005  -2.775   3.317  1.00  0.00    -0.399 OA
HETATM   68  H   UNL     1      -6.724  -3.265   2.888  1.00  0.00     0.209 HD
ENDBRANCH  66  67
ENDBRANCH  60  66
ENDBRANCH  59  60
BRANCH  59  69
HETATM   69  C   UNL     1      -4.500  -2.984  -1.142  1.00  0.00     0.180 C 
BRANCH  69  70
HETATM   70  O   UNL     1      -5.849  -2.673  -1.484  1.00  0.00    -0.390 OA
HETATM   71  H   UNL     1      -5.924  -1.724  -1.672  1.00  0.00     0.210 HD
ENDBRANCH  69  70
BRANCH  69  72
HETATM   72  C   UNL     1      -3.576  -2.735  -2.320  1.00  0.00     0.173 C 
BRANCH  72  73
HETATM   73  O   UNL     1      -4.117  -3.317  -3.501  1.00  0.00    -0.391 OA
HETATM   74  H   UNL     1      -4.182  -4.278  -3.387  1.00  0.00     0.210 HD
ENDBRANCH  72  73
BRANCH  72  75
HETATM   75  C   UNL     1      -2.191  -3.321  -2.115  1.00  0.00     0.198 C 
BRANCH  75  76
HETATM   76  O   UNL     1      -2.255  -4.588  -1.473  1.00  0.00    -0.398 OA
HETATM   77  H   UNL     1      -2.667  -4.488  -0.600  1.00  0.00     0.209 HD
ENDBRANCH  75  76
ENDBRANCH  72  75
ENDBRANCH  69  72
ENDBRANCH  59  69
ENDBRANCH  58  59
ENDBRANCH   1  58
TORSDOF 34
