REMARK  12 active torsions:
REMARK  status: ('A' for Active; 'I' for Inactive)
REMARK    1  A    between atoms: SE_2  and  C_3 
REMARK    2  A    between atoms: SE_2  and  C_10 
REMARK    3  A    between atoms: C_3  and  C_4 
REMARK    4  A    between atoms: C_4  and  CA_5 
REMARK    5  A    between atoms: CA_5  and  N_6 
REMARK    6  A    between atoms: CA_5  and  C_7 
REMARK    7  A    between atoms: C_7  and  OXT_9 
REMARK    8  A    between atoms: C_10  and  C_11 
REMARK    9  A    between atoms: C_13  and  N_14 
REMARK   10  A    between atoms: C_18  and  N_19 
REMARK   11  A    between atoms: C_24  and  O_25 
REMARK   12  A    between atoms: C_26  and  O_27 
ROOT
HETATM    1  C   UNL     1       0.336  -0.303   0.098  1.00  0.00     0.155 C 
HETATM    2  O   UNL     1      -0.265  -1.223  -0.724  1.00  0.00    -0.356 OA
HETATM    3  C   UNL     1      -1.516  -1.519  -0.195  1.00  0.00     0.262 C 
HETATM    4  C   UNL     1      -1.168  -1.623   1.297  1.00  0.00     0.198 C 
HETATM    5  C   UNL     1      -0.352  -0.354   1.439  1.00  0.00     0.180 C 
ENDROOT
BRANCH   1   6
HETATM    6  C   UNL     1       1.794  -0.749   0.275  1.00  0.00     0.037 C 
BRANCH   6   7
HETATM    7 SE   UNL     1       2.366  -0.696  -1.587  1.00  0.00     0.000 Se
HETATM    8  C   UNL     1       1.793   1.648  -1.262  1.00  0.00     0.000 C 
BRANCH   7   9
HETATM    9  C   UNL     1       4.016  -0.070  -1.452  1.00  0.00     0.003 C 
BRANCH   9  10
HETATM   10  C   UNL     1       4.399   0.204  -0.025  1.00  0.00     0.046 C 
BRANCH  10  11
HETATM   11  CA  UNL     1       5.809   0.736   0.063  1.00  0.00     0.314 C 
BRANCH  11  12
HETATM   12  N   UNL     1       5.968   1.974  -0.675  1.00  0.00     0.093 N 
HETATM   13  H1  UNL     1       5.805   1.803  -1.667  1.00  0.00     0.314 HD
HETATM   14  H2  UNL     1       6.914   2.330  -0.542  1.00  0.00     0.314 HD
ENDBRANCH  11  12
BRANCH  11  15
HETATM   15  C   UNL     1       6.810  -0.259  -0.367  1.00  0.00     0.173 C 
HETATM   16  O   UNL     1       7.635   0.038  -1.256  1.00  0.00    -0.648 OA
BRANCH  15  17
HETATM   17  OXT UNL     1       6.815  -1.503   0.225  1.00  0.00    -0.775 OA
HETATM   18  HXT UNL     1       6.189  -1.708   0.891  1.00  0.00     0.167 HD
ENDBRANCH  15  17
ENDBRANCH  11  15
ENDBRANCH  10  11
ENDBRANCH   9  10
ENDBRANCH   7   9
ENDBRANCH   6   7
ENDBRANCH   1   6
BRANCH   5  19
HETATM   19  O   UNL     1       0.556  -0.458   2.490  1.00  0.00    -0.390 OA
HETATM   20  H   UNL     1       1.116  -1.238   2.357  1.00  0.00     0.210 HD
ENDBRANCH   5  19
BRANCH   3  21
HETATM   21  N   UNL     1      -2.345  -0.332  -0.423  1.00  0.00    -0.294 N 
HETATM   22  C   UNL     1      -2.029   0.820  -1.015  1.00  0.00     0.214 A 
HETATM   23  N   UNL     1      -3.063   1.657  -1.027  1.00  0.00    -0.236 NA
HETATM   24  C   UNL     1      -4.080   0.989  -0.407  1.00  0.00     0.149 A 
HETATM   25  C   UNL     1      -5.391   1.360  -0.130  1.00  0.00     0.155 A 
HETATM   26  C   UNL     1      -3.630  -0.238  -0.037  1.00  0.00     0.167 A 
HETATM   27  N   UNL     1      -6.220   0.508   0.505  1.00  0.00    -0.222 NA
HETATM   28  C   UNL     1      -5.715  -0.687   0.844  1.00  0.00     0.237 A 
HETATM   29  N   UNL     1      -4.460  -1.079   0.594  1.00  0.00    -0.222 NA
BRANCH  25  30
HETATM   30  N   UNL     1      -5.785   2.660  -0.550  1.00  0.00    -0.382 N 
HETATM   31  H   UNL     1      -5.140   3.245  -1.011  1.00  0.00     0.157 HD
HETATM   32  H   UNL     1      -6.701   2.976  -0.380  1.00  0.00     0.157 HD
ENDBRANCH  25  30
ENDBRANCH   3  21
BRANCH   4  33
HETATM   33  O   UNL     1      -2.277  -1.504   2.093  1.00  0.00    -0.388 OA
HETATM   34  H   UNL     1      -2.738  -0.678   1.883  1.00  0.00     0.210 HD
ENDBRANCH   4  33
TORSDOF 12
