REMARK  26 active torsions:
REMARK  status: ('A' for Active; 'I' for Inactive)
REMARK    1  A    between atoms: O_2  and  C_3 
REMARK    2  A    between atoms: C_3  and  C_5 
REMARK    3  A    between atoms: C_7  and  O_8 
REMARK    4  A    between atoms: O_8  and  C_9 
REMARK    5  A    between atoms: C_10  and  C_11 
REMARK    6  A    between atoms: C_11  and  O_13 
REMARK    7  A    between atoms: C_15  and  O_16 
REMARK    8  A    between atoms: C_17  and  O_18 
REMARK    9  A    between atoms: C_19  and  O_20 
REMARK   10  A    between atoms: C_21  and  O_22 
REMARK   11  A    between atoms: C_23  and  O_24 
REMARK   12  A    between atoms: O_24  and  C_25 
REMARK   13  A    between atoms: C_28  and  O_29 
REMARK   14  A    between atoms: O_29  and  C_30 
REMARK   15  A    between atoms: C_32  and  C_33 
REMARK   16  A    between atoms: C_33  and  O_35 
REMARK   17  A    between atoms: C_36  and  O_37 
REMARK   18  A    between atoms: O_37  and  C_38 
REMARK   19  A    between atoms: C_40  and  C_41 
REMARK   20  A    between atoms: C_41  and  O_43 
REMARK   21  A    between atoms: C_44  and  O_45 
REMARK   22  A    between atoms: C_46  and  O_47 
REMARK   23  A    between atoms: C_48  and  O_49 
REMARK   24  A    between atoms: C_50  and  O_51 
REMARK   25  A    between atoms: O_51  and  C_52 
REMARK   26  A    between atoms: C_55  and  O_56 
ROOT
HETATM    1  O   UNL     1      -0.139   0.141   0.363  1.00  0.00    -0.347 OA
ENDROOT
BRANCH   1   2
HETATM    2  C   UNL     1      -1.288   0.791   0.888  1.00  0.00     0.196 C 
HETATM    3  C   UNL     1      -2.454  -0.129   1.225  1.00  0.00     0.255 C 
HETATM    4  O   UNL     1      -3.473  -0.074   0.248  1.00  0.00    -0.341 OA
HETATM    5  C   UNL     1      -4.127   1.188   0.296  1.00  0.00     0.292 C 
HETATM    6  C   UNL     1      -3.136   2.355   0.238  1.00  0.00     0.205 C 
HETATM    7  C   UNL     1      -1.738   1.874  -0.088  1.00  0.00     0.197 C 
BRANCH   3   8
HETATM    8  C   UNL     1      -2.046  -1.517   1.673  1.00  0.00     0.290 C 
HETATM    9  O   UNL     1      -2.071  -2.526   0.981  1.00  0.00    -0.262 OA
BRANCH   8  10
HETATM   10  O   UNL     1      -1.687  -1.465   2.988  1.00  0.00    -0.324 OA
HETATM   11  C   UNL     1      -1.292  -2.752   3.451  1.00  0.00     0.213 C 
ENDBRANCH   8  10
ENDBRANCH   3   8
BRANCH   5  12
HETATM   12  O   UNL     1      -5.110   1.265  -0.731  1.00  0.00    -0.347 OA
BRANCH  12  13
HETATM   13  C   UNL     1      -6.116   0.278  -0.486  1.00  0.00     0.195 C 
HETATM   14  C   UNL     1      -7.460   0.870  -0.907  1.00  0.00     0.253 C 
HETATM   15  O   UNL     1      -7.906   0.459  -2.188  1.00  0.00    -0.340 OA
HETATM   16  C   UNL     1      -6.799   0.417  -3.088  1.00  0.00     0.289 C 
HETATM   17  C   UNL     1      -5.902  -0.772  -2.774  1.00  0.00     0.204 C 
HETATM   18  C   UNL     1      -5.795  -0.990  -1.276  1.00  0.00     0.183 C 
BRANCH  14  19
HETATM   19  C   UNL     1      -8.412   0.627   0.245  1.00  0.00     0.172 C 
HETATM   20  O   UNL     1      -8.245   1.078   1.373  1.00  0.00    -0.648 OA
BRANCH  19  21
HETATM   21  O   UNL     1      -9.448  -0.166  -0.101  1.00  0.00    -0.774 OA
HETATM   22  H   UNL     1      -9.524  -0.482  -0.980  1.00  0.00     0.167 HD
ENDBRANCH  19  21
ENDBRANCH  14  19
BRANCH  16  23
HETATM   23  O   UNL     1      -7.241   0.336  -4.434  1.00  0.00    -0.368 OA
HETATM   24  H   UNL     1      -7.747  -0.481  -4.559  1.00  0.00     0.212 HD
ENDBRANCH  16  23
BRANCH  17  25
HETATM   25  O   UNL     1      -4.611  -0.525  -3.315  1.00  0.00    -0.388 OA
HETATM   26  H   UNL     1      -4.240   0.276  -2.913  1.00  0.00     0.210 HD
ENDBRANCH  17  25
BRANCH  18  27
HETATM   27  O   UNL     1      -6.732  -1.993  -0.892  1.00  0.00    -0.390 OA
HETATM   28  H   UNL     1      -7.630  -1.694  -1.104  1.00  0.00     0.210 HD
ENDBRANCH  18  27
ENDBRANCH  12  13
ENDBRANCH   5  12
BRANCH   6  29
HETATM   29  O   UNL     1      -3.550   3.415  -0.599  1.00  0.00    -0.388 OA
HETATM   30  H   UNL     1      -3.592   3.104  -1.517  1.00  0.00     0.210 HD
ENDBRANCH   6  29
BRANCH   7  31
HETATM   31  O   UNL     1      -0.783   2.944  -0.199  1.00  0.00    -0.311 OA
BRANCH  31  32
HETATM   32  C   UNL     1      -0.543   3.628   0.949  1.00  0.00     0.255 C 
HETATM   33  C   UNL     1       0.384   4.766   0.687  1.00  0.00     0.126 C 
HETATM   34  O   UNL     1      -1.011   3.341   2.042  1.00  0.00    -0.266 OA
ENDBRANCH  31  32
ENDBRANCH   7  31
ENDBRANCH   1   2
BRANCH   1  35
HETATM   35  C   UNL     1       0.842   0.114   1.385  1.00  0.00     0.293 C 
HETATM   36  O   UNL     1       1.140  -1.225   1.740  1.00  0.00    -0.340 OA
HETATM   37  C   UNL     1       1.933  -1.871   0.778  1.00  0.00     0.253 C 
HETATM   38  C   UNL     1       3.234  -1.181   0.420  1.00  0.00     0.196 C 
HETATM   39  C   UNL     1       2.977   0.283   0.059  1.00  0.00     0.197 C 
HETATM   40  C   UNL     1       2.055   0.970   1.049  1.00  0.00     0.205 C 
BRANCH  37  41
HETATM   41  C   UNL     1       1.340  -2.627  -0.388  1.00  0.00     0.172 C 
HETATM   42  O   UNL     1       1.429  -2.315  -1.565  1.00  0.00    -0.648 OA
BRANCH  41  43
HETATM   43  O   UNL     1       0.746  -3.764   0.052  1.00  0.00    -0.774 OA
HETATM   44  H   UNL     1       0.709  -3.949   0.970  1.00  0.00     0.167 HD
ENDBRANCH  41  43
ENDBRANCH  37  41
BRANCH  38  45
HETATM   45  O   UNL     1       4.105  -1.267   1.555  1.00  0.00    -0.347 OA
BRANCH  45  46
HETATM   46  C   UNL     1       5.447  -1.268   1.098  1.00  0.00     0.293 C 
HETATM   47  O   UNL     1       5.796  -0.023   0.502  1.00  0.00    -0.340 OA
HETATM   48  C   UNL     1       6.957  -0.218  -0.301  1.00  0.00     0.253 C 
HETATM   49  C   UNL     1       8.109  -0.824   0.502  1.00  0.00     0.189 C 
HETATM   50  C   UNL     1       7.786  -0.982   1.982  1.00  0.00     0.183 C 
HETATM   51  C   UNL     1       6.412  -1.582   2.237  1.00  0.00     0.204 C 
BRANCH  48  52
HETATM   52  C   UNL     1       6.675  -0.977  -1.585  1.00  0.00     0.172 C 
HETATM   53  O   UNL     1       5.864  -1.889  -1.696  1.00  0.00    -0.648 OA
BRANCH  52  54
HETATM   54  O   UNL     1       7.466  -0.518  -2.585  1.00  0.00    -0.774 OA
HETATM   55  H   UNL     1       8.064   0.185  -2.425  1.00  0.00     0.167 HD
ENDBRANCH  52  54
ENDBRANCH  48  52
BRANCH  49  56
HETATM   56  O   UNL     1       8.537  -2.075  -0.009  1.00  0.00    -0.390 OA
HETATM   57  H   UNL     1       7.820  -2.723   0.081  1.00  0.00     0.210 HD
ENDBRANCH  49  56
BRANCH  50  58
HETATM   58  O   UNL     1       7.839   0.309   2.582  1.00  0.00    -0.390 OA
HETATM   59  H   UNL     1       7.174   0.884   2.171  1.00  0.00     0.210 HD
ENDBRANCH  50  58
BRANCH  51  60
HETATM   60  O   UNL     1       6.526  -2.994   2.362  1.00  0.00    -0.388 OA
HETATM   61  H   UNL     1       6.874  -3.364   1.536  1.00  0.00     0.210 HD
ENDBRANCH  51  60
ENDBRANCH  45  46
ENDBRANCH  38  45
BRANCH  39  62
HETATM   62  O   UNL     1       2.388   0.364  -1.241  1.00  0.00    -0.311 OA
BRANCH  62  63
HETATM   63  C   UNL     1       3.285   0.715  -2.199  1.00  0.00     0.255 C 
HETATM   64  C   UNL     1       2.621   0.717  -3.536  1.00  0.00     0.126 C 
HETATM   65  O   UNL     1       4.461   0.997  -2.010  1.00  0.00    -0.266 OA
ENDBRANCH  62  63
ENDBRANCH  39  62
BRANCH  40  66
HETATM   66  O   UNL     1       2.761   1.261   2.245  1.00  0.00    -0.388 OA
HETATM   67  H   UNL     1       3.066   0.434   2.650  1.00  0.00     0.210 HD
ENDBRANCH  40  66
ENDBRANCH   1  35
TORSDOF 26
