REMARK  18 active torsions:
REMARK  status: ('A' for Active; 'I' for Inactive)
REMARK    1  A    between atoms: C_2  and  O_3 
REMARK    2  A    between atoms: C_2  and  C_4 
REMARK    3  A    between atoms: C_6  and  O_7 
REMARK    4  A    between atoms: O_7  and  C_8 
REMARK    5  A    between atoms: C_9  and  C_10 
REMARK    6  A    between atoms: C_10  and  O_12 
REMARK    7  A    between atoms: C_14  and  O_15 
REMARK    8  A    between atoms: O_15  and  C_16 
REMARK    9  A    between atoms: C_17  and  C_18 
REMARK   10  A    between atoms: C_18  and  O_20 
REMARK   11  A    between atoms: C_22  and  O_23 
REMARK   12  A    between atoms: C_24  and  O_25 
REMARK   13  A    between atoms: C_26  and  O_27 
REMARK   14  A    between atoms: C_28  and  O_29 
REMARK   15  A    between atoms: C_30  and  O_31 
REMARK   16  A    between atoms: C_32  and  O_33 
REMARK   17  A    between atoms: C_34  and  O_35 
REMARK   18  A    between atoms: C_36  and  O_37 
ROOT
HETATM    1  C   UNL     1       1.509   0.129  -0.883  1.00  0.00     0.195 C 
HETATM    2  C   UNL     1       0.557  -0.659  -1.769  1.00  0.00     0.253 C 
HETATM    3  O   UNL     1      -0.426   0.181  -2.333  1.00  0.00    -0.340 OA
HETATM    4  C   UNL     1      -1.311   0.716  -1.355  1.00  0.00     0.293 C 
HETATM    5  C   UNL     1      -0.623   1.224  -0.082  1.00  0.00     0.204 C 
HETATM    6  C   UNL     1       0.851   1.398  -0.368  1.00  0.00     0.183 C 
ENDROOT
BRANCH   1   7
HETATM    7  O   UNL     1       2.183  -0.612   0.118  1.00  0.00    -0.347 OA
BRANCH   7   8
HETATM    8  C   UNL     1       3.398  -1.138  -0.399  1.00  0.00     0.293 C 
HETATM    9  O   UNL     1       4.267  -0.084  -0.796  1.00  0.00    -0.340 OA
HETATM   10  C   UNL     1       5.129   0.395   0.234  1.00  0.00     0.253 C 
HETATM   11  C   UNL     1       4.622   0.134   1.637  1.00  0.00     0.189 C 
HETATM   12  C   UNL     1       4.501  -1.362   1.845  1.00  0.00     0.183 C 
HETATM   13  C   UNL     1       4.008  -2.098   0.618  1.00  0.00     0.204 C 
BRANCH  10  14
HETATM   14  C   UNL     1       5.483   1.850   0.037  1.00  0.00     0.172 C 
HETATM   15  O   UNL     1       6.624   2.270  -0.105  1.00  0.00    -0.648 OA
BRANCH  14  16
HETATM   16  O   UNL     1       4.380   2.635   0.010  1.00  0.00    -0.774 OA
HETATM   17  H   UNL     1       3.531   2.254   0.125  1.00  0.00     0.167 HD
ENDBRANCH  14  16
ENDBRANCH  10  14
BRANCH  11  18
HETATM   18  O   UNL     1       5.524   0.646   2.606  1.00  0.00    -0.390 OA
HETATM   19  H   UNL     1       6.385   0.211   2.508  1.00  0.00     0.210 HD
ENDBRANCH  11  18
BRANCH  12  20
HETATM   20  O   UNL     1       3.619  -1.612   2.928  1.00  0.00    -0.390 OA
HETATM   21  H   UNL     1       2.738  -1.270   2.713  1.00  0.00     0.210 HD
ENDBRANCH  12  20
BRANCH  13  22
HETATM   22  O   UNL     1       5.135  -2.728   0.014  1.00  0.00    -0.388 OA
HETATM   23  H   UNL     1       5.787  -2.054  -0.235  1.00  0.00     0.210 HD
ENDBRANCH  13  22
ENDBRANCH   7   8
ENDBRANCH   1   7
BRANCH   2  24
HETATM   24  C   UNL     1       0.179  -2.034  -1.240  1.00  0.00     0.172 C 
HETATM   25  O   UNL     1      -0.763  -2.312  -0.515  1.00  0.00    -0.648 OA
BRANCH  24  26
HETATM   26  O   UNL     1       1.081  -2.945  -1.692  1.00  0.00    -0.774 OA
HETATM   27  H   UNL     1       1.785  -2.673  -2.247  1.00  0.00     0.167 HD
ENDBRANCH  24  26
ENDBRANCH   2  24
BRANCH   6  28
HETATM   28  O   UNL     1       1.542   1.955   0.734  1.00  0.00    -0.390 OA
HETATM   29  H   UNL     1       1.504   1.340   1.483  1.00  0.00     0.210 HD
ENDBRANCH   6  28
BRANCH   5  30
HETATM   30  O   UNL     1      -0.814   0.340   1.012  1.00  0.00    -0.388 OA
HETATM   31  H   UNL     1      -0.430  -0.525   0.800  1.00  0.00     0.210 HD
ENDBRANCH   5  30
BRANCH   4  32
HETATM   32  O   UNL     1      -2.438  -0.119  -1.196  1.00  0.00    -0.347 OA
BRANCH  32  33
HETATM   33  C   UNL     1      -3.415   0.445  -0.339  1.00  0.00     0.195 C 
HETATM   34  C   UNL     1      -4.268  -0.639   0.295  1.00  0.00     0.253 C 
HETATM   35  O   UNL     1      -5.243  -0.127   1.188  1.00  0.00    -0.340 OA
HETATM   36  C   UNL     1      -6.061   0.907   0.646  1.00  0.00     0.289 C 
HETATM   37  C   UNL     1      -5.280   2.041   0.003  1.00  0.00     0.204 C 
HETATM   38  C   UNL     1      -4.311   1.470  -1.016  1.00  0.00     0.183 C 
BRANCH  34  39
HETATM   39  C   UNL     1      -4.748  -1.649  -0.730  1.00  0.00     0.172 C 
HETATM   40  O   UNL     1      -5.372  -1.378  -1.748  1.00  0.00    -0.648 OA
BRANCH  39  41
HETATM   41  O   UNL     1      -4.398  -2.901  -0.352  1.00  0.00    -0.774 OA
HETATM   42  H   UNL     1      -3.920  -3.035   0.442  1.00  0.00     0.167 HD
ENDBRANCH  39  41
ENDBRANCH  34  39
BRANCH  36  43
HETATM   43  O   UNL     1      -7.039   0.414  -0.246  1.00  0.00    -0.368 OA
HETATM   44  H   UNL     1      -6.604   0.034  -1.026  1.00  0.00     0.212 HD
ENDBRANCH  36  43
BRANCH  37  45
HETATM   45  O   UNL     1      -4.553   2.726   1.022  1.00  0.00    -0.388 OA
HETATM   46  H   UNL     1      -3.951   2.106   1.461  1.00  0.00     0.210 HD
ENDBRANCH  37  45
BRANCH  38  47
HETATM   47  O   UNL     1      -3.527   2.521  -1.566  1.00  0.00    -0.390 OA
HETATM   48  H   UNL     1      -3.030   2.960  -0.857  1.00  0.00     0.210 HD
ENDBRANCH  38  47
ENDBRANCH  32  33
ENDBRANCH   4  32
TORSDOF 18
