REMARK  16 active torsions:
REMARK  status: ('A' for Active; 'I' for Inactive)
REMARK    1  A    between atoms: C_2  and  O_4 
REMARK    2  A    between atoms: C_2  and  C_16 
REMARK    3  A    between atoms: O_4  and  C_5 
REMARK    4  A    between atoms: C_7  and  C_8 
REMARK    5  A    between atoms: C_8  and  O_9 
REMARK    6  A    between atoms: C_10  and  O_11 
REMARK    7  A    between atoms: C_12  and  O_13 
REMARK    8  A    between atoms: C_14  and  O_15 
REMARK    9  A    between atoms: C_19  and  C_21 
REMARK   10  A    between atoms: C_22  and  O_23 
REMARK   11  A    between atoms: C_29  and  O_30 
REMARK   12  A    between atoms: C_35  and  O_36 
REMARK   13  A    between atoms: O_36  and  C_37 
REMARK   14  A    between atoms: C_40  and  O_41 
REMARK   15  A    between atoms: C_42  and  O_43 
REMARK   16  A    between atoms: C_44  and  O_45 
ROOT
HETATM    1  C   UNL     1      -2.430   2.561  -1.742  1.00  0.00     0.057 C 
HETATM    2  C   UNL     1      -2.070   3.039  -3.130  1.00  0.00     0.126 C 
HETATM    3  C   UNL     1      -0.639   2.566  -3.266  1.00  0.00     0.042 C 
HETATM    4  C   UNL     1      -0.013   2.835  -1.899  1.00  0.00    -0.029 C 
HETATM    5  C   UNL     1       0.711   4.168  -2.013  1.00  0.00     0.016 C 
HETATM    6  C   UNL     1       1.032   1.775  -1.573  1.00  0.00     0.006 C 
HETATM    7  C   UNL     1       0.563   0.319  -1.816  1.00  0.00     0.038 C 
HETATM    8  C   UNL     1       1.450  -0.775  -1.195  1.00  0.00     0.124 C 
HETATM    9  C   UNL     1       2.219  -0.405   0.100  1.00  0.00     0.034 C 
HETATM   10  C   UNL     1       3.365  -1.363   0.476  1.00  0.00    -0.015 C 
HETATM   11  C   UNL     1       3.480  -2.565  -0.449  1.00  0.00     0.018 C 
HETATM   12  C   UNL     1       3.060  -1.899   1.863  1.00  0.00     0.018 C 
HETATM   13  C   UNL     1       4.705  -0.613   0.525  1.00  0.00     0.133 C 
HETATM   14  C   UNL     1       4.975   0.169  -0.753  1.00  0.00     0.034 C 
HETATM   15  C   UNL     1       3.815   1.075  -1.122  1.00  0.00     0.013 C 
HETATM   16  C   UNL     1       2.712   0.999  -0.094  1.00  0.00    -0.025 A 
HETATM   17  C   UNL     1       2.623   2.297   0.628  1.00  0.00     0.021 A 
HETATM   18  C   UNL     1       1.431   1.845  -0.136  1.00  0.00    -0.027 A 
HETATM   19  C   UNL     1       0.285   1.677   0.832  1.00  0.00     0.011 C 
HETATM   20  C   UNL     1      -1.081   1.795   0.191  1.00  0.00     0.011 C 
HETATM   21  C   UNL     1      -1.195   2.871  -0.883  1.00  0.00    -0.028 C 
HETATM   22  C   UNL     1      -1.312   4.217  -0.181  1.00  0.00     0.016 C 
ENDROOT
BRANCH   1  23
HETATM   23  C   UNL     1      -3.820   2.923  -1.246  1.00  0.00     0.065 C 
HETATM   24  C   UNL     1      -4.894   2.150  -1.989  1.00  0.00     0.041 C 
HETATM   25  C   UNL     1      -5.934   1.804  -0.956  1.00  0.00     0.038 C 
HETATM   26  C   UNL     1      -5.305   2.171   0.368  1.00  0.00     0.156 C 
HETATM   27  O   UNL     1      -3.951   2.561   0.129  1.00  0.00    -0.372 OA
HETATM   28  C   UNL     1      -4.108   4.409  -1.384  1.00  0.00     0.046 C 
BRANCH  26  29
HETATM   29  C   UNL     1      -5.423   1.122   1.479  1.00  0.00     0.083 C 
HETATM   30  C   UNL     1      -4.936   1.756   2.770  1.00  0.00     0.048 C 
HETATM   31  C   UNL     1      -6.880   0.742   1.699  1.00  0.00     0.048 C 
BRANCH  29  32
HETATM   32  O   UNL     1      -4.624  -0.059   1.311  1.00  0.00    -0.346 OA
BRANCH  32  33
HETATM   33  C   UNL     1      -4.765  -0.674   0.040  1.00  0.00     0.292 C 
HETATM   34  O   UNL     1      -5.981  -1.423  -0.044  1.00  0.00    -0.348 OA
HETATM   35  C   UNL     1      -5.832  -2.725   0.529  1.00  0.00     0.179 C 
HETATM   36  C   UNL     1      -4.851  -3.589  -0.269  1.00  0.00     0.180 C 
HETATM   37  C   UNL     1      -3.861  -2.749  -1.060  1.00  0.00     0.183 C 
HETATM   38  C   UNL     1      -3.519  -1.503  -0.267  1.00  0.00     0.204 C 
BRANCH  35  39
HETATM   39  C   UNL     1      -7.210  -3.363   0.585  1.00  0.00     0.198 C 
BRANCH  39  40
HETATM   40  O   UNL     1      -7.136  -4.673   1.136  1.00  0.00    -0.398 OA
HETATM   41  H   UNL     1      -6.566  -5.226   0.579  1.00  0.00     0.209 HD
ENDBRANCH  39  40
ENDBRANCH  35  39
BRANCH  36  42
HETATM   42  O   UNL     1      -4.114  -4.375   0.664  1.00  0.00    -0.390 OA
HETATM   43  H   UNL     1      -3.628  -3.790   1.267  1.00  0.00     0.210 HD
ENDBRANCH  36  42
BRANCH  37  44
HETATM   44  O   UNL     1      -4.444  -2.408  -2.312  1.00  0.00    -0.390 OA
HETATM   45  H   UNL     1      -5.263  -1.909  -2.162  1.00  0.00     0.210 HD
ENDBRANCH  37  44
BRANCH  38  46
HETATM   46  O   UNL     1      -2.556  -0.715  -0.952  1.00  0.00    -0.388 OA
HETATM   47  H   UNL     1      -2.924  -0.419  -1.799  1.00  0.00     0.210 HD
ENDBRANCH  38  46
ENDBRANCH  32  33
ENDBRANCH  29  32
ENDBRANCH  26  29
ENDBRANCH   1  23
BRANCH   2  48
HETATM   48  O   UNL     1      -2.861   2.404  -4.115  1.00  0.00    -0.395 OA
HETATM   49  H   UNL     1      -2.764   1.442  -4.039  1.00  0.00     0.210 HD
ENDBRANCH   2  48
BRANCH   8  50
HETATM   50  O   UNL     1       0.648  -1.924  -0.975  1.00  0.00    -0.395 OA
HETATM   51  H   UNL     1      -0.042  -1.717  -0.326  1.00  0.00     0.210 HD
ENDBRANCH   8  50
BRANCH  13  52
HETATM   52  O   UNL     1       5.801  -1.492   0.759  1.00  0.00    -0.353 OA
BRANCH  52  53
HETATM   53  C   UNL     1       6.357  -1.141   2.022  1.00  0.00     0.291 C 
HETATM   54  O   UNL     1       7.198   0.003   1.895  1.00  0.00    -0.356 OA
HETATM   55  C   UNL     1       8.316  -0.248   1.043  1.00  0.00     0.205 C 
HETATM   56  C   UNL     1       9.184  -1.402   1.516  1.00  0.00     0.173 C 
HETATM   57  C   UNL     1       8.316  -2.620   1.758  1.00  0.00     0.182 C 
HETATM   58  C   UNL     1       7.096  -2.340   2.605  1.00  0.00     0.204 C 
BRANCH  56  59
HETATM   59  O   UNL     1       9.891  -1.011   2.686  1.00  0.00    -0.391 OA
HETATM   60  H   UNL     1       9.258  -0.773   3.381  1.00  0.00     0.210 HD
ENDBRANCH  56  59
BRANCH  57  61
HETATM   61  O   UNL     1       9.066  -3.716   2.254  1.00  0.00    -0.390 OA
HETATM   62  H   UNL     1       9.423  -3.495   3.128  1.00  0.00     0.210 HD
ENDBRANCH  57  61
BRANCH  58  63
HETATM   63  O   UNL     1       7.442  -2.082   3.956  1.00  0.00    -0.388 OA
HETATM   64  H   UNL     1       8.012  -1.298   4.000  1.00  0.00     0.210 HD
ENDBRANCH  58  63
ENDBRANCH  52  53
ENDBRANCH  13  52
TORSDOF 16
