REMARK  30 active torsions:
REMARK  status: ('A' for Active; 'I' for Inactive)
REMARK    1  A    between atoms: C_2  and  O_3 
REMARK    2  A    between atoms: C_2  and  C_4 
REMARK    3  A    between atoms: C_6  and  O_7 
REMARK    4  A    between atoms: O_7  and  C_8 
REMARK    5  A    between atoms: C_9  and  C_10 
REMARK    6  A    between atoms: C_10  and  O_12 
REMARK    7  A    between atoms: C_14  and  O_15 
REMARK    8  A    between atoms: O_15  and  C_16 
REMARK    9  A    between atoms: C_17  and  C_18 
REMARK   10  A    between atoms: C_18  and  O_20 
REMARK   11  A    between atoms: C_22  and  O_23 
REMARK   12  A    between atoms: O_23  and  C_24 
REMARK   13  A    between atoms: C_25  and  C_26 
REMARK   14  A    between atoms: C_26  and  O_28 
REMARK   15  A    between atoms: C_30  and  O_31 
REMARK   16  A    between atoms: O_31  and  C_32 
REMARK   17  A    between atoms: C_33  and  C_34 
REMARK   18  A    between atoms: C_34  and  O_36 
REMARK   19  A    between atoms: C_38  and  O_39 
REMARK   20  A    between atoms: C_40  and  O_41 
REMARK   21  A    between atoms: C_42  and  O_43 
REMARK   22  A    between atoms: C_44  and  O_45 
REMARK   23  A    between atoms: C_46  and  O_47 
REMARK   24  A    between atoms: C_48  and  O_49 
REMARK   25  A    between atoms: C_50  and  O_51 
REMARK   26  A    between atoms: C_52  and  O_53 
REMARK   27  A    between atoms: C_54  and  O_55 
REMARK   28  A    between atoms: C_56  and  O_57 
REMARK   29  A    between atoms: C_58  and  O_59 
REMARK   30  A    between atoms: C_60  and  O_61 
ROOT
HETATM    1  C   UNL     1      -1.039   0.462  -1.994  1.00  0.00     0.195 C 
HETATM    2  C   UNL     1      -0.342   1.164  -0.848  1.00  0.00     0.253 C 
HETATM    3  O   UNL     1       0.300   0.298   0.077  1.00  0.00    -0.340 OA
HETATM    4  C   UNL     1       0.872  -0.859  -0.517  1.00  0.00     0.293 C 
HETATM    5  C   UNL     1      -0.151  -1.734  -1.224  1.00  0.00     0.204 C 
HETATM    6  C   UNL     1      -1.382  -0.966  -1.640  1.00  0.00     0.183 C 
ENDROOT
BRANCH   1   7
HETATM    7  O   UNL     1      -2.108   1.187  -2.574  1.00  0.00    -0.347 OA
BRANCH   7   8
HETATM    8  C   UNL     1      -3.080   1.656  -1.653  1.00  0.00     0.293 C 
HETATM    9  O   UNL     1      -3.643   0.608  -0.882  1.00  0.00    -0.340 OA
HETATM   10  C   UNL     1      -4.552   1.088   0.102  1.00  0.00     0.253 C 
HETATM   11  C   UNL     1      -5.500   2.159  -0.412  1.00  0.00     0.195 C 
HETATM   12  C   UNL     1      -5.520   2.151  -1.924  1.00  0.00     0.183 C 
HETATM   13  C   UNL     1      -4.126   2.440  -2.444  1.00  0.00     0.204 C 
BRANCH  10  14
HETATM   14  C   UNL     1      -3.926   1.504   1.414  1.00  0.00     0.172 C 
HETATM   15  O   UNL     1      -4.030   0.882   2.461  1.00  0.00    -0.648 OA
BRANCH  14  16
HETATM   16  O   UNL     1      -3.180   2.629   1.265  1.00  0.00    -0.774 OA
HETATM   17  H   UNL     1      -3.143   3.059   0.433  1.00  0.00     0.167 HD
ENDBRANCH  14  16
ENDBRANCH  10  14
BRANCH  11  18
HETATM   18  O   UNL     1      -6.773   2.198   0.205  1.00  0.00    -0.347 OA
BRANCH  18  19
HETATM   19  C   UNL     1      -7.389   0.923   0.238  1.00  0.00     0.293 C 
HETATM   20  O   UNL     1      -7.632   0.559   1.591  1.00  0.00    -0.340 OA
HETATM   21  C   UNL     1      -8.044  -0.803   1.692  1.00  0.00     0.253 C 
HETATM   22  C   UNL     1      -9.191  -1.131   0.753  1.00  0.00     0.189 C 
HETATM   23  C   UNL     1      -9.744   0.136   0.132  1.00  0.00     0.183 C 
HETATM   24  C   UNL     1      -8.663   0.914  -0.598  1.00  0.00     0.204 C 
BRANCH  21  25
HETATM   25  C   UNL     1      -6.926  -1.773   1.383  1.00  0.00     0.172 C 
HETATM   26  O   UNL     1      -6.104  -1.619   0.487  1.00  0.00    -0.648 OA
BRANCH  25  27
HETATM   27  O   UNL     1      -6.961  -2.831   2.227  1.00  0.00    -0.774 OA
HETATM   28  H   UNL     1      -7.621  -2.880   2.890  1.00  0.00     0.167 HD
ENDBRANCH  25  27
ENDBRANCH  21  25
BRANCH  22  29
HETATM   29  O   UNL     1     -10.199  -1.800   1.500  1.00  0.00    -0.390 OA
HETATM   30  H   UNL     1     -10.505  -1.224   2.217  1.00  0.00     0.210 HD
ENDBRANCH  22  29
BRANCH  23  31
HETATM   31  O   UNL     1     -10.825  -0.152  -0.739  1.00  0.00    -0.390 OA
HETATM   32  H   UNL     1     -10.512  -0.707  -1.470  1.00  0.00     0.210 HD
ENDBRANCH  23  31
BRANCH  24  33
HETATM   33  O   UNL     1      -8.329   0.277  -1.831  1.00  0.00    -0.388 OA
HETATM   34  H   UNL     1      -7.995  -0.616  -1.653  1.00  0.00     0.210 HD
ENDBRANCH  24  33
ENDBRANCH  18  19
ENDBRANCH  11  18
BRANCH  12  35
HETATM   35  O   UNL     1      -6.456   3.079  -2.438  1.00  0.00    -0.390 OA
HETATM   36  H   UNL     1      -6.212   3.975  -2.156  1.00  0.00     0.210 HD
ENDBRANCH  12  35
BRANCH  13  37
HETATM   37  O   UNL     1      -3.802   3.817  -2.279  1.00  0.00    -0.388 OA
HETATM   38  H   UNL     1      -3.817   4.042  -1.335  1.00  0.00     0.210 HD
ENDBRANCH  13  37
ENDBRANCH   7   8
ENDBRANCH   1   7
BRANCH   2  39
HETATM   39  C   UNL     1       0.524   2.287  -1.369  1.00  0.00     0.172 C 
HETATM   40  O   UNL     1       1.102   2.311  -2.448  1.00  0.00    -0.648 OA
BRANCH  39  41
HETATM   41  O   UNL     1       0.539   3.305  -0.472  1.00  0.00    -0.774 OA
HETATM   42  H   UNL     1       0.074   3.223   0.337  1.00  0.00     0.167 HD
ENDBRANCH  39  41
ENDBRANCH   2  39
BRANCH   6  43
HETATM   43  O   UNL     1      -1.984  -1.629  -2.737  1.00  0.00    -0.390 OA
HETATM   44  H   UNL     1      -1.359  -1.660  -3.478  1.00  0.00     0.210 HD
ENDBRANCH   6  43
BRANCH   5  45
HETATM   45  O   UNL     1      -0.564  -2.769  -0.343  1.00  0.00    -0.388 OA
HETATM   46  H   UNL     1      -0.985  -2.379   0.439  1.00  0.00     0.210 HD
ENDBRANCH   5  45
BRANCH   4  47
HETATM   47  O   UNL     1       1.886  -0.476  -1.437  1.00  0.00    -0.347 OA
BRANCH  47  48
HETATM   48  C   UNL     1       3.202  -0.749  -0.974  1.00  0.00     0.195 C 
HETATM   49  C   UNL     1       3.619  -0.074   0.329  1.00  0.00     0.253 C 
HETATM   50  O   UNL     1       4.980  -0.359   0.664  1.00  0.00    -0.340 OA
HETATM   51  C   UNL     1       5.215  -1.755   0.742  1.00  0.00     0.293 C 
HETATM   52  C   UNL     1       5.008  -2.445  -0.608  1.00  0.00     0.204 C 
HETATM   53  C   UNL     1       3.568  -2.225  -1.023  1.00  0.00     0.183 C 
BRANCH  49  54
HETATM   54  C   UNL     1       3.489   1.425   0.231  1.00  0.00     0.172 C 
HETATM   55  O   UNL     1       2.973   2.126   1.089  1.00  0.00    -0.648 OA
BRANCH  54  56
HETATM   56  O   UNL     1       4.035   1.905  -0.913  1.00  0.00    -0.774 OA
HETATM   57  H   UNL     1       4.416   1.315  -1.534  1.00  0.00     0.167 HD
ENDBRANCH  54  56
ENDBRANCH  49  54
BRANCH  51  58
HETATM   58  O   UNL     1       6.474  -2.047   1.330  1.00  0.00    -0.347 OA
BRANCH  58  59
HETATM   59  C   UNL     1       7.532  -1.311   0.703  1.00  0.00     0.195 C 
HETATM   60  C   UNL     1       7.752  -0.005   1.450  1.00  0.00     0.253 C 
HETATM   61  O   UNL     1       8.240  -0.168   2.762  1.00  0.00    -0.340 OA
HETATM   62  C   UNL     1       9.432  -0.949   2.829  1.00  0.00     0.289 C 
HETATM   63  C   UNL     1       9.288  -2.314   2.177  1.00  0.00     0.204 C 
HETATM   64  C   UNL     1       8.815  -2.119   0.751  1.00  0.00     0.183 C 
BRANCH  60  65
HETATM   65  C   UNL     1       8.334   1.029   0.510  1.00  0.00     0.172 C 
HETATM   66  O   UNL     1       7.699   1.626  -0.346  1.00  0.00    -0.648 OA
BRANCH  65  67
HETATM   67  O   UNL     1       9.670   1.167   0.696  1.00  0.00    -0.774 OA
HETATM   68  H   UNL     1      10.102   0.681   1.370  1.00  0.00     0.167 HD
ENDBRANCH  65  67
ENDBRANCH  60  65
BRANCH  62  69
HETATM   69  O   UNL     1       9.844  -1.099   4.175  1.00  0.00    -0.368 OA
HETATM   70  H   UNL     1       9.164  -1.582   4.669  1.00  0.00     0.212 HD
ENDBRANCH  62  69
BRANCH  63  71
HETATM   71  O   UNL     1      10.560  -2.959   2.153  1.00  0.00    -0.388 OA
HETATM   72  H   UNL     1      11.190  -2.414   1.656  1.00  0.00     0.210 HD
ENDBRANCH  63  71
BRANCH  64  73
HETATM   73  O   UNL     1       8.624  -3.370   0.104  1.00  0.00    -0.390 OA
HETATM   74  H   UNL     1       7.933  -3.871   0.566  1.00  0.00     0.210 HD
ENDBRANCH  64  73
ENDBRANCH  58  59
ENDBRANCH  51  58
BRANCH  52  75
HETATM   75  O   UNL     1       5.853  -1.866  -1.600  1.00  0.00    -0.388 OA
HETATM   76  H   UNL     1       5.648  -0.922  -1.688  1.00  0.00     0.210 HD
ENDBRANCH  52  75
BRANCH  53  77
HETATM   77  O   UNL     1       2.735  -2.956  -0.130  1.00  0.00    -0.390 OA
HETATM   78  H   UNL     1       2.873  -2.637   0.776  1.00  0.00     0.210 HD
ENDBRANCH  53  77
ENDBRANCH  47  48
ENDBRANCH   4  47
TORSDOF 30
