REMARK  22 active torsions:
REMARK  status: ('A' for Active; 'I' for Inactive)
REMARK       I    between atoms: C_2  and  N_4 
REMARK    1  A    between atoms: N_4  and  C_5 
REMARK    2  A    between atoms: C_6  and  O_7 
REMARK    3  A    between atoms: O_7  and  C_8 
REMARK    4  A    between atoms: C_9  and  C_10 
REMARK    5  A    between atoms: C_10  and  O_12 
REMARK    6  A    between atoms: C_14  and  O_15 
REMARK    7  A    between atoms: O_15  and  C_16 
REMARK    8  A    between atoms: C_17  and  N_18 
REMARK       I    between atoms: N_18  and  C_19 
REMARK    9  A    between atoms: C_22  and  O_23 
REMARK   10  A    between atoms: C_25  and  C_26 
REMARK   11  A    between atoms: C_26  and  O_27 
REMARK   12  A    between atoms: C_28  and  O_29 
REMARK   13  A    between atoms: O_29  and  S_30 
REMARK   14  A    between atoms: S_30  and  O_33 
REMARK   15  A    between atoms: C_34  and  O_35 
REMARK   16  A    between atoms: C_36  and  O_37 
REMARK   17  A    between atoms: C_39  and  C_40 
REMARK   18  A    between atoms: C_40  and  O_41 
REMARK   19  A    between atoms: C_42  and  O_43 
REMARK   20  A    between atoms: O_43  and  S_44 
REMARK   21  A    between atoms: S_44  and  O_47 
REMARK   22  A    between atoms: C_48  and  O_49 
ROOT
HETATM    1  C   UNL     1       0.624  -0.753  -0.314  1.00  0.00     0.195 C 
HETATM    2  C   UNL     1      -0.281  -1.345   0.763  1.00  0.00     0.253 C 
HETATM    3  O   UNL     1      -1.481  -0.609   0.890  1.00  0.00    -0.340 OA
HETATM    4  C   UNL     1      -2.316  -0.820  -0.256  1.00  0.00     0.292 C 
HETATM    5  C   UNL     1      -1.540  -0.741  -1.581  1.00  0.00     0.204 C 
HETATM    6  C   UNL     1      -0.205  -0.038  -1.387  1.00  0.00     0.183 C 
ENDROOT
BRANCH   1   7
HETATM    7  O   UNL     1       1.641   0.085   0.227  1.00  0.00    -0.348 OA
BRANCH   7   8
HETATM    8  C   UNL     1       2.777   0.014  -0.629  1.00  0.00     0.286 C 
HETATM    9  C   UNL     1       3.996  -0.215   0.267  1.00  0.00     0.170 C 
HETATM   10  C   UNL     1       4.964   0.943   0.107  1.00  0.00     0.178 C 
HETATM   11  C   UNL     1       5.318   1.192  -1.345  1.00  0.00     0.206 C 
HETATM   12  C   UNL     1       4.050   1.230  -2.196  1.00  0.00     0.181 C 
HETATM   13  O   UNL     1       2.872   1.216  -1.388  1.00  0.00    -0.349 OA
BRANCH   9  14
HETATM   14  N   UNL     1       4.629  -1.504   0.086  1.00  0.00    -0.349 N 
HETATM   15  C   UNL     1       3.992  -2.635  -0.360  1.00  0.00     0.214 C 
HETATM   16  C   UNL     1       4.918  -3.814  -0.373  1.00  0.00     0.117 C 
HETATM   17  O   UNL     1       2.830  -2.689  -0.745  1.00  0.00    -0.274 OA
HETATM   18  H   UNL     1       5.588  -1.574   0.298  1.00  0.00     0.163 HD
ENDBRANCH   9  14
BRANCH  10  19
HETATM   19  O   UNL     1       6.110   0.803   0.929  1.00  0.00    -0.391 OA
HETATM   20  H   UNL     1       6.609   0.017   0.657  1.00  0.00     0.210 HD
ENDBRANCH  10  19
BRANCH  11  21
HETATM   21  O   UNL     1       6.255   0.240  -1.804  1.00  0.00    -0.253 OA
BRANCH  21  22
HETATM   22  S   UNL     1       7.328   0.761  -2.903  1.00  0.00     0.240 S 
HETATM   23  O   UNL     1       7.321  -0.218  -3.965  1.00  0.00    -0.579 OA
HETATM   24  O   UNL     1       7.024   2.150  -3.179  1.00  0.00    -0.579 OA
BRANCH  22  25
HETATM   25  O   UNL     1       8.747   0.675  -2.112  1.00  0.00    -0.274 OA
HETATM   26  H   UNL     1       8.957  -0.253  -1.924  1.00  0.00     0.234 HD
ENDBRANCH  22  25
ENDBRANCH  21  22
ENDBRANCH  11  21
BRANCH  12  27
HETATM   27  C   UNL     1       4.018   0.243  -3.353  1.00  0.00     0.199 C 
BRANCH  27  28
HETATM   28  O   UNL     1       2.752   0.274  -3.995  1.00  0.00    -0.398 OA
HETATM   29  H   UNL     1       2.061   0.030  -3.360  1.00  0.00     0.209 HD
ENDBRANCH  27  28
ENDBRANCH  12  27
ENDBRANCH   7   8
ENDBRANCH   1   7
BRANCH   2  30
HETATM   30  C   UNL     1       0.472  -1.594   2.052  1.00  0.00     0.172 C 
HETATM   31  O   UNL     1       1.172  -2.574   2.278  1.00  0.00    -0.648 OA
BRANCH  30  32
HETATM   32  O   UNL     1       0.303  -0.580   2.937  1.00  0.00    -0.774 OA
HETATM   33  H   UNL     1      -0.243   0.149   2.716  1.00  0.00     0.167 HD
ENDBRANCH  30  32
ENDBRANCH   2  30
BRANCH   6  34
HETATM   34  O   UNL     1      -0.426   1.326  -1.056  1.00  0.00    -0.390 OA
HETATM   35  H   UNL     1      -0.932   1.381  -0.231  1.00  0.00     0.210 HD
ENDBRANCH   6  34
BRANCH   5  36
HETATM   36  O   UNL     1      -1.267  -2.072  -2.030  1.00  0.00    -0.388 OA
HETATM   37  H   UNL     1      -0.732  -2.534  -1.365  1.00  0.00     0.210 HD
ENDBRANCH   5  36
BRANCH   4  38
HETATM   38  O   UNL     1      -3.323   0.201  -0.295  1.00  0.00    -0.348 OA
BRANCH  38  39
HETATM   39  C   UNL     1      -4.025   0.167   0.946  1.00  0.00     0.185 C 
HETATM   40  C   UNL     1      -3.885   1.458   1.750  1.00  0.00     0.171 C 
HETATM   41  C   UNL     1      -5.179   2.269   1.719  1.00  0.00     0.282 C 
HETATM   42  O   UNL     1      -5.775   2.271   0.426  1.00  0.00    -0.349 OA
HETATM   43  C   UNL     1      -6.263   0.971   0.082  1.00  0.00     0.181 C 
HETATM   44  C   UNL     1      -5.493  -0.160   0.737  1.00  0.00     0.206 C 
BRANCH  40  45
HETATM   45  N   UNL     1      -2.693   2.204   1.443  1.00  0.00    -0.349 N 
HETATM   46  C   UNL     1      -1.960   2.781   2.445  1.00  0.00     0.214 C 
HETATM   47  C   UNL     1      -0.761   3.488   1.904  1.00  0.00     0.117 C 
HETATM   48  O   UNL     1      -2.228   2.730   3.643  1.00  0.00    -0.274 OA
HETATM   49  H   UNL     1      -2.403   2.300   0.507  1.00  0.00     0.163 HD
ENDBRANCH  40  45
BRANCH  41  50
HETATM   50  O   UNL     1      -5.037   3.575   2.238  1.00  0.00    -0.369 OA
HETATM   51  H   UNL     1      -4.432   4.083   1.674  1.00  0.00     0.212 HD
ENDBRANCH  41  50
BRANCH  43  52
HETATM   52  C   UNL     1      -6.310   0.825  -1.424  1.00  0.00     0.199 C 
BRANCH  52  53
HETATM   53  O   UNL     1      -7.325   1.665  -1.954  1.00  0.00    -0.398 OA
HETATM   54  H   UNL     1      -8.183   1.410  -1.580  1.00  0.00     0.209 HD
ENDBRANCH  52  53
ENDBRANCH  43  52
BRANCH  44  55
HETATM   55  O   UNL     1      -5.735  -1.410   0.133  1.00  0.00    -0.253 OA
BRANCH  55  56
HETATM   56  S   UNL     1      -5.171  -2.705   0.939  1.00  0.00     0.240 S 
HETATM   57  O   UNL     1      -5.093  -2.328   2.334  1.00  0.00    -0.579 OA
HETATM   58  O   UNL     1      -3.991  -3.148   0.226  1.00  0.00    -0.579 OA
BRANCH  56  59
HETATM   59  O   UNL     1      -6.349  -3.807   0.754  1.00  0.00    -0.274 OA
HETATM   60  H   UNL     1      -7.142  -3.516   1.230  1.00  0.00     0.234 HD
ENDBRANCH  56  59
ENDBRANCH  55  56
ENDBRANCH  44  55
ENDBRANCH  38  39
ENDBRANCH   4  38
TORSDOF 22
