REMARK  17 active torsions:
REMARK  status: ('A' for Active; 'I' for Inactive)
REMARK    1  A    between atoms: C_2  and  O_4 
REMARK    2  A    between atoms: O_4  and  C_5 
REMARK    3  A    between atoms: C_6  and  O_7 
REMARK    4  A    between atoms: O_7  and  C_8 
REMARK    5  A    between atoms: C_18  and  C_19 
REMARK    6  A    between atoms: C_23  and  C_24 
REMARK    7  A    between atoms: C_24  and  O_27 
REMARK    8  A    between atoms: O_27  and  C_28 
REMARK    9  A    between atoms: C_30  and  C_31 
REMARK   10  A    between atoms: C_31  and  O_32 
REMARK   11  A    between atoms: C_33  and  O_34 
REMARK   12  A    between atoms: C_35  and  O_36 
REMARK   13  A    between atoms: C_37  and  O_38 
REMARK   14  A    between atoms: C_40  and  O_41 
REMARK   15  A    between atoms: C_47  and  O_48 
REMARK   16  A    between atoms: C_55  and  O_56 
REMARK   17  A    between atoms: C_57  and  O_58 
ROOT
HETATM    1  C   UNL     1       5.674   0.768  -0.121  1.00  0.00     0.133 C 
HETATM    2  C   UNL     1       5.084   0.844   1.273  1.00  0.00     0.034 C 
HETATM    3  C   UNL     1       3.611   1.178   1.299  1.00  0.00     0.013 C 
HETATM    4  C   UNL     1       2.890   0.750   0.066  1.00  0.00    -0.025 A 
HETATM    5  C   UNL     1       2.285  -0.624   0.066  1.00  0.00     0.021 A 
HETATM    6  C   UNL     1       1.381   0.572   0.152  1.00  0.00    -0.027 A 
HETATM    7  C   UNL     1       0.676   0.750   1.464  1.00  0.00     0.011 C 
HETATM    8  C   UNL     1      -0.837   0.761   1.304  1.00  0.00     0.011 C 
HETATM    9  C   UNL     1      -1.353  -0.226   0.248  1.00  0.00    -0.028 C 
HETATM   10  C   UNL     1      -1.033  -1.623   0.757  1.00  0.00     0.016 C 
HETATM   11  C   UNL     1      -2.858   0.053   0.070  1.00  0.00     0.057 C 
HETATM   12  C   UNL     1      -2.865   1.179  -0.955  1.00  0.00     0.126 C 
HETATM   13  C   UNL     1      -1.770   0.832  -1.937  1.00  0.00     0.042 C 
HETATM   14  C   UNL     1      -0.712   0.069  -1.144  1.00  0.00    -0.029 C 
HETATM   15  C   UNL     1      -0.401  -1.199  -1.928  1.00  0.00     0.016 C 
HETATM   16  C   UNL     1       0.533   0.941  -1.024  1.00  0.00     0.006 C 
HETATM   17  C   UNL     1       1.272   1.212  -2.313  1.00  0.00     0.038 C 
HETATM   18  C   UNL     1       2.526   2.022  -2.060  1.00  0.00     0.124 C 
HETATM   19  C   UNL     1       3.496   1.180  -1.246  1.00  0.00     0.034 C 
HETATM   20  C   UNL     1       4.951   1.630  -1.152  1.00  0.00    -0.015 C 
HETATM   21  C   UNL     1       5.629   1.419  -2.492  1.00  0.00     0.018 C 
HETATM   22  C   UNL     1       5.062   3.103  -0.807  1.00  0.00     0.018 C 
ENDROOT
BRANCH  11  23
HETATM   23  C   UNL     1      -3.827  -1.113  -0.098  1.00  0.00     0.065 C 
HETATM   24  C   UNL     1      -3.852  -1.958   1.165  1.00  0.00     0.046 C 
HETATM   25  C   UNL     1      -3.513  -1.998  -1.289  1.00  0.00     0.041 C 
HETATM   26  C   UNL     1      -4.833  -2.227  -1.985  1.00  0.00     0.038 C 
HETATM   27  C   UNL     1      -5.857  -1.648  -1.037  1.00  0.00     0.156 C 
HETATM   28  O   UNL     1      -5.169  -0.651  -0.275  1.00  0.00    -0.372 OA
BRANCH  27  29
HETATM   29  C   UNL     1      -7.128  -1.127  -1.713  1.00  0.00     0.083 C 
HETATM   30  C   UNL     1      -6.813   0.047  -2.618  1.00  0.00     0.048 C 
HETATM   31  C   UNL     1      -7.764  -2.212  -2.565  1.00  0.00     0.048 C 
BRANCH  29  32
HETATM   32  O   UNL     1      -8.098  -0.651  -0.772  1.00  0.00    -0.346 OA
BRANCH  32  33
HETATM   33  C   UNL     1      -8.498  -1.663   0.144  1.00  0.00     0.292 C 
HETATM   34  O   UNL     1      -7.716  -1.619   1.329  1.00  0.00    -0.348 OA
HETATM   35  C   UNL     1      -7.930  -0.444   2.100  1.00  0.00     0.179 C 
HETATM   36  C   UNL     1      -9.391  -0.039   2.270  1.00  0.00     0.180 C 
HETATM   37  C   UNL     1     -10.314  -1.156   1.834  1.00  0.00     0.183 C 
HETATM   38  C   UNL     1      -9.993  -1.536   0.402  1.00  0.00     0.204 C 
BRANCH  35  39
HETATM   39  C   UNL     1      -6.962   0.665   1.748  1.00  0.00     0.198 C 
BRANCH  39  40
HETATM   40  O   UNL     1      -7.033   1.685   2.736  1.00  0.00    -0.398 OA
HETATM   41  H   UNL     1      -7.935   2.040   2.769  1.00  0.00     0.209 HD
ENDBRANCH  39  40
ENDBRANCH  35  39
BRANCH  36  42
HETATM   42  O   UNL     1      -9.703   1.114   1.504  1.00  0.00    -0.390 OA
HETATM   43  H   UNL     1      -9.575   0.921   0.562  1.00  0.00     0.210 HD
ENDBRANCH  36  42
BRANCH  37  44
HETATM   44  O   UNL     1     -10.188  -2.258   2.722  1.00  0.00    -0.390 OA
HETATM   45  H   UNL     1      -9.272  -2.576   2.714  1.00  0.00     0.210 HD
ENDBRANCH  37  44
BRANCH  38  46
HETATM   46  O   UNL     1     -10.655  -2.736   0.025  1.00  0.00    -0.388 OA
HETATM   47  H   UNL     1     -10.332  -3.469   0.572  1.00  0.00     0.210 HD
ENDBRANCH  38  46
ENDBRANCH  32  33
ENDBRANCH  29  32
ENDBRANCH  27  29
ENDBRANCH  11  23
BRANCH  12  48
HETATM   48  O   UNL     1      -4.067   1.378  -1.658  1.00  0.00    -0.395 OA
HETATM   49  H   UNL     1      -4.275   0.584  -2.175  1.00  0.00     0.210 HD
ENDBRANCH  12  48
BRANCH  18  50
HETATM   50  O   UNL     1       3.066   2.373  -3.321  1.00  0.00    -0.395 OA
HETATM   51  H   UNL     1       3.251   1.567  -3.829  1.00  0.00     0.210 HD
ENDBRANCH  18  50
BRANCH   1  52
HETATM   52  O   UNL     1       7.058   1.076  -0.036  1.00  0.00    -0.352 OA
BRANCH  52  53
HETATM   53  C   UNL     1       7.764  -0.150   0.063  1.00  0.00     0.292 C 
HETATM   54  C   UNL     1       9.085   0.009   0.822  1.00  0.00     0.218 C 
HETATM   55  C   UNL     1      10.042  -1.107   0.439  1.00  0.00     0.183 C 
HETATM   56  C   UNL     1      10.268  -1.145  -1.061  1.00  0.00     0.173 C 
HETATM   57  C   UNL     1       9.127  -0.479  -1.816  1.00  0.00     0.205 C 
HETATM   58  O   UNL     1       7.880  -0.790  -1.204  1.00  0.00    -0.356 OA
BRANCH  54  59
HETATM   59  O   UNL     1       9.689   1.279   0.555  1.00  0.00    -0.309 OA
BRANCH  59  60
HETATM   60  C   UNL     1      10.191   1.824   1.691  1.00  0.00     0.255 C 
HETATM   61  C   UNL     1      10.726   3.186   1.412  1.00  0.00     0.126 C 
HETATM   62  O   UNL     1      10.216   1.279   2.783  1.00  0.00    -0.266 OA
ENDBRANCH  59  60
ENDBRANCH  54  59
BRANCH  55  63
HETATM   63  O   UNL     1       9.488  -2.351   0.843  1.00  0.00    -0.390 OA
HETATM   64  H   UNL     1       8.641  -2.490   0.390  1.00  0.00     0.210 HD
ENDBRANCH  55  63
BRANCH  56  65
HETATM   65  O   UNL     1      11.465  -0.450  -1.374  1.00  0.00    -0.391 OA
HETATM   66  H   UNL     1      11.382   0.476  -1.098  1.00  0.00     0.210 HD
ENDBRANCH  56  65
ENDBRANCH  52  53
ENDBRANCH   1  52
TORSDOF 17
