REMARK  3 active torsions:
REMARK  status: ('A' for Active; 'I' for Inactive)
REMARK       I    between atoms: C_2  and  N_3 
REMARK       I    between atoms: C_2  and  N_4 
REMARK    1  A    between atoms: N_4  and  N_5 
REMARK       I    between atoms: N_5  and  C_6 
REMARK    2  A    between atoms: N_5  and  S_9 
REMARK       I    between atoms: C_6  and  N_8 
REMARK    3  A    between atoms: S_9  and  O_12 
ROOT
HETATM    1  N   UNL     1      -0.139  -0.350   0.280  1.00  0.00     0.021 N 
HETATM    2  C   UNL     1      -1.067  -1.336  -0.128  1.00  0.00     0.724 C 
HETATM    3  N   UNL     1      -0.656  -2.385  -0.777  1.00  0.00    -0.116 NA
HETATM    4  N   UNL     1      -2.379  -1.140   0.237  1.00  0.00    -0.231 N 
HETATM    5  H   UNL     1       0.295  -2.476  -1.014  1.00  0.00     0.206 HD
HETATM    6  H   UNL     1      -2.637  -0.326   0.728  1.00  0.00     0.174 HD
HETATM    7  H   UNL     1      -3.060  -1.812   0.007  1.00  0.00     0.174 HD
ENDROOT
BRANCH   1   8
HETATM    8  N   UNL     1       1.269  -0.504  -0.131  1.00  0.00    -0.099 N 
HETATM    9  C   UNL     1       1.602   0.092  -1.341  1.00  0.00     0.707 C 
HETATM   10  N   UNL     1       0.759   0.486  -2.256  1.00  0.00    -0.117 NA
HETATM   11  N   UNL     1       2.969   0.158  -1.534  1.00  0.00    -0.232 N 
HETATM   12  H   UNL     1       1.091   0.900  -3.085  1.00  0.00     0.206 HD
HETATM   13  H   UNL     1       3.331   0.560  -2.356  1.00  0.00     0.174 HD
HETATM   14  H   UNL     1       3.580  -0.197  -0.848  1.00  0.00     0.174 HD
HETATM   15  H   UNL     1       1.926  -0.994   0.414  1.00  0.00     0.207 HD
ENDBRANCH   1   8
BRANCH   1  16
HETATM   16  S   UNL     1      -0.498   1.043   1.152  1.00  0.00     0.236 S 
HETATM   17  O   UNL     1      -1.675   1.650   0.568  1.00  0.00    -0.583 OA
HETATM   18  O   UNL     1       0.725   1.807   1.304  1.00  0.00    -0.583 OA
BRANCH  16  19
HETATM   19  O   UNL     1      -0.909   0.478   2.625  1.00  0.00    -0.277 OA
HETATM   20  H   UNL     1      -1.727  -0.039   2.556  1.00  0.00     0.234 HD
ENDBRANCH  16  19
ENDBRANCH   1  16
TORSDOF 3
