REMARK  1 active torsions:
REMARK  status: ('A' for Active; 'I' for Inactive)
REMARK       I    between atoms: C_2  and  N_3 
REMARK       I    between atoms: C_2  and  N_4 
REMARK    1  A    between atoms: N_4  and  C_5 
ROOT
HETATM    1  N   UNL     1       2.281   1.095   0.726  1.00  0.00    -0.118 NA
HETATM    2  C   UNL     1       2.247   0.250  -0.263  1.00  0.00     0.691 C 
HETATM    3  N   UNL     1       3.389  -0.099  -0.958  1.00  0.00    -0.233 N 
HETATM    4  N   UNL     1       1.123  -0.399  -0.750  1.00  0.00    -0.190 N 
HETATM    5  H   UNL     1       3.136   1.503   0.995  1.00  0.00     0.206 HD
HETATM    6  H   UNL     1       4.256   0.295  -0.709  1.00  0.00     0.174 HD
HETATM    7  H   UNL     1       3.336  -0.741  -1.703  1.00  0.00     0.174 HD
HETATM    8  H   UNL     1       1.252  -1.014  -1.507  1.00  0.00     0.184 HD
ENDROOT
BRANCH   4   9
HETATM    9  C   UNL     1      -0.184  -0.254  -0.254  1.00  0.00     0.066 A 
HETATM   10  C   UNL     1      -1.214  -0.978  -0.853  1.00  0.00     0.033 A 
HETATM   11  C   UNL     1      -2.524  -0.870  -0.399  1.00  0.00     0.021 A 
HETATM   12  C   UNL     1      -2.765  -0.018   0.665  1.00  0.00     0.116 A 
HETATM   13  N   UNL     1      -1.807   0.705   1.281  1.00  0.00    -0.271 NA
HETATM   14  C   UNL     1      -0.547   0.568   0.806  1.00  0.00     0.146 A 
ENDBRANCH   4   9
TORSDOF 1
