REMARK  18 active torsions:
REMARK  status: ('A' for Active; 'I' for Inactive)
REMARK    1  A    between atoms: C_2  and  O_4 
REMARK    2  A    between atoms: C_2  and  C_5 
REMARK    3  A    between atoms: C_8  and  C_10 
REMARK    4  A    between atoms: C_11  and  O_12 
REMARK    5  A    between atoms: C_18  and  O_19 
REMARK    6  A    between atoms: O_19  and  C_20 
REMARK    7  A    between atoms: C_23  and  O_24 
REMARK    8  A    between atoms: C_25  and  O_26 
REMARK    9  A    between atoms: C_27  and  O_28 
REMARK   10  A    between atoms: C_33  and  O_34 
REMARK   11  A    between atoms: O_34  and  C_35 
REMARK   12  A    between atoms: C_38  and  O_39 
REMARK   13  A    between atoms: C_40  and  O_41 
REMARK   14  A    between atoms: C_42  and  O_43 
REMARK   15  A    between atoms: O_43  and  C_44 
REMARK   16  A    between atoms: C_47  and  O_48 
REMARK   17  A    between atoms: C_49  and  O_50 
REMARK   18  A    between atoms: C_51  and  O_52 
ROOT
HETATM    1  C   UNL     1       5.952  -1.144   1.705  1.00  0.00     0.057 C 
HETATM    2  C   UNL     1       6.043   0.265   2.301  1.00  0.00     0.126 C 
HETATM    3  C   UNL     1       4.607   0.749   2.500  1.00  0.00     0.042 C 
HETATM    4  C   UNL     1       3.878   0.078   1.350  1.00  0.00    -0.029 C 
HETATM    5  C   UNL     1       4.259   0.820   0.071  1.00  0.00     0.016 C 
HETATM    6  C   UNL     1       2.360   0.025   1.483  1.00  0.00     0.006 C 
HETATM    7  C   UNL     1       1.702   1.361   1.184  1.00  0.00     0.038 C 
HETATM    8  C   UNL     1       0.205   1.344   0.947  1.00  0.00     0.131 C 
HETATM    9  C   UNL     1      -0.470   0.002   1.116  1.00  0.00     0.034 C 
HETATM   10  C   UNL     1      -1.983  -0.125   1.171  1.00  0.00    -0.015 C 
HETATM   11  C   UNL     1      -2.679   0.865   0.261  1.00  0.00     0.018 C 
HETATM   12  C   UNL     1      -2.422   0.189   2.588  1.00  0.00     0.018 C 
HETATM   13  C   UNL     1      -2.383  -1.557   0.827  1.00  0.00     0.133 C 
HETATM   14  C   UNL     1      -1.828  -2.085  -0.480  1.00  0.00     0.034 C 
HETATM   15  C   UNL     1      -0.360  -1.759  -0.688  1.00  0.00     0.013 C 
HETATM   16  C   UNL     1       0.268  -1.142   0.517  1.00  0.00    -0.025 A 
HETATM   17  C   UNL     1       0.921  -2.083   1.479  1.00  0.00     0.021 A 
HETATM   18  C   UNL     1       1.772  -1.128   0.692  1.00  0.00    -0.027 A 
HETATM   19  C   UNL     1       2.658  -1.763  -0.344  1.00  0.00     0.011 C 
HETATM   20  C   UNL     1       4.051  -2.126   0.168  1.00  0.00     0.011 C 
HETATM   21  C   UNL     1       4.463  -1.344   1.403  1.00  0.00    -0.028 C 
HETATM   22  C   UNL     1       3.948  -2.126   2.612  1.00  0.00     0.016 C 
ENDROOT
BRANCH  13  23
HETATM   23  O   UNL     1      -3.726  -1.922   1.066  1.00  0.00    -0.353 OA
BRANCH  23  24
HETATM   24  C   UNL     1      -4.621  -1.327   0.140  1.00  0.00     0.291 C 
HETATM   25  O   UNL     1      -4.771  -2.132  -1.029  1.00  0.00    -0.356 OA
HETATM   26  C   UNL     1      -5.396  -3.377  -0.713  1.00  0.00     0.205 C 
HETATM   27  C   UNL     1      -6.809  -3.184  -0.183  1.00  0.00     0.173 C 
HETATM   28  C   UNL     1      -6.784  -2.292   1.038  1.00  0.00     0.182 C 
HETATM   29  C   UNL     1      -5.988  -1.027   0.755  1.00  0.00     0.211 C 
BRANCH  27  30
HETATM   30  O   UNL     1      -7.602  -2.555  -1.186  1.00  0.00    -0.391 OA
HETATM   31  H   UNL     1      -7.218  -1.692  -1.408  1.00  0.00     0.210 HD
ENDBRANCH  27  30
BRANCH  28  32
HETATM   32  O   UNL     1      -6.261  -3.023   2.136  1.00  0.00    -0.390 OA
HETATM   33  H   UNL     1      -5.358  -3.314   1.930  1.00  0.00     0.210 HD
ENDBRANCH  28  32
BRANCH  29  34
HETATM   34  O   UNL     1      -5.926  -0.175   1.889  1.00  0.00    -0.346 OA
BRANCH  34  35
HETATM   35  C   UNL     1      -6.929   0.816   1.859  1.00  0.00     0.291 C 
HETATM   36  O   UNL     1      -8.254   0.364   1.654  1.00  0.00    -0.356 OA
HETATM   37  C   UNL     1      -8.672   0.442   0.292  1.00  0.00     0.205 C 
HETATM   38  C   UNL     1      -8.496   1.824  -0.317  1.00  0.00     0.173 C 
HETATM   39  C   UNL     1      -7.045   2.245  -0.216  1.00  0.00     0.182 C 
HETATM   40  C   UNL     1      -6.581   2.148   1.219  1.00  0.00     0.204 C 
BRANCH  38  41
HETATM   41  O   UNL     1      -9.301   2.755   0.393  1.00  0.00    -0.391 OA
HETATM   42  H   UNL     1      -9.029   2.773   1.324  1.00  0.00     0.210 HD
ENDBRANCH  38  41
BRANCH  39  43
HETATM   43  O   UNL     1      -6.268   1.401  -1.057  1.00  0.00    -0.390 OA
HETATM   44  H   UNL     1      -6.369   0.479  -0.772  1.00  0.00     0.210 HD
ENDBRANCH  39  43
BRANCH  40  45
HETATM   45  O   UNL     1      -5.216   2.490   1.353  1.00  0.00    -0.388 OA
HETATM   46  H   UNL     1      -4.673   1.852   0.865  1.00  0.00     0.210 HD
ENDBRANCH  40  45
ENDBRANCH  34  35
ENDBRANCH  29  34
ENDBRANCH  23  24
ENDBRANCH  13  23
BRANCH   8  47
HETATM   47  O   UNL     1      -0.159   2.058  -0.224  1.00  0.00    -0.353 OA
BRANCH  47  48
HETATM   48  C   UNL     1       0.407   1.484  -1.396  1.00  0.00     0.291 C 
HETATM   49  O   UNL     1       1.688   2.042  -1.668  1.00  0.00    -0.356 OA
HETATM   50  C   UNL     1       2.365   1.226  -2.618  1.00  0.00     0.205 C 
HETATM   51  C   UNL     1       1.503   0.812  -3.801  1.00  0.00     0.173 C 
HETATM   52  C   UNL     1       0.228   1.628  -3.903  1.00  0.00     0.182 C 
HETATM   53  C   UNL     1      -0.517   1.724  -2.586  1.00  0.00     0.204 C 
BRANCH  51  54
HETATM   54  O   UNL     1       1.170  -0.560  -3.626  1.00  0.00    -0.391 OA
HETATM   55  H   UNL     1       0.674  -0.669  -2.799  1.00  0.00     0.210 HD
ENDBRANCH  51  54
BRANCH  52  56
HETATM   56  O   UNL     1       0.564   2.941  -4.340  1.00  0.00    -0.390 OA
HETATM   57  H   UNL     1       1.148   3.359  -3.688  1.00  0.00     0.210 HD
ENDBRANCH  52  56
BRANCH  53  58
HETATM   58  O   UNL     1      -1.549   0.744  -2.578  1.00  0.00    -0.388 OA
HETATM   59  H   UNL     1      -1.157  -0.139  -2.660  1.00  0.00     0.210 HD
ENDBRANCH  53  58
ENDBRANCH  47  48
ENDBRANCH   8  47
BRANCH   2  60
HETATM   60  O   UNL     1       6.686   0.200   3.561  1.00  0.00    -0.395 OA
HETATM   61  H   UNL     1       6.191  -0.394   4.147  1.00  0.00     0.210 HD
ENDBRANCH   2  60
BRANCH   1  62
HETATM   62  C   UNL     1       6.981  -1.409   0.620  1.00  0.00     0.065 C 
HETATM   63  C   UNL     1       8.384  -1.050   1.072  1.00  0.00     0.041 C 
HETATM   64  C   UNL     1       8.975  -0.223  -0.044  1.00  0.00     0.038 C 
HETATM   65  C   UNL     1       7.957  -0.308  -1.156  1.00  0.00     0.156 C 
HETATM   66  O   UNL     1       6.707  -0.644  -0.551  1.00  0.00    -0.372 OA
HETATM   67  C   UNL     1       6.985  -2.880   0.250  1.00  0.00     0.046 C 
BRANCH  65  68
HETATM   68  C   UNL     1       7.864   0.941  -2.017  1.00  0.00     0.076 C 
HETATM   69  C   UNL     1       6.915   0.714  -3.170  1.00  0.00     0.048 C 
HETATM   70  C   UNL     1       7.392   2.141  -1.226  1.00  0.00     0.048 C 
BRANCH  68  71
HETATM   71  O   UNL     1       9.142   1.246  -2.557  1.00  0.00    -0.388 OA
HETATM   72  H   UNL     1       9.079   2.043  -3.105  1.00  0.00     0.210 HD
ENDBRANCH  68  71
ENDBRANCH  65  68
ENDBRANCH   1  62
TORSDOF 18
