REMARK  17 active torsions:
REMARK  status: ('A' for Active; 'I' for Inactive)
REMARK    1  A    between atoms: C_2  and  O_4 
REMARK    2  A    between atoms: O_4  and  C_5 
REMARK    3  A    between atoms: C_6  and  O_7 
REMARK    4  A    between atoms: O_7  and  C_8 
REMARK    5  A    between atoms: C_18  and  C_19 
REMARK    6  A    between atoms: C_23  and  C_24 
REMARK    7  A    between atoms: C_24  and  O_27 
REMARK    8  A    between atoms: C_29  and  O_30 
REMARK    9  A    between atoms: C_36  and  O_37 
REMARK   10  A    between atoms: C_43  and  C_44 
REMARK   11  A    between atoms: C_44  and  O_45 
REMARK   12  A    between atoms: O_45  and  C_46 
REMARK   13  A    between atoms: C_50  and  O_51 
REMARK   14  A    between atoms: C_52  and  O_53 
REMARK   15  A    between atoms: C_54  and  O_55 
REMARK   16  A    between atoms: C_56  and  O_57 
REMARK   17  A    between atoms: C_58  and  O_59 
ROOT
HETATM    1  C   UNL     1      -1.345   0.517  -0.769  1.00  0.00     0.133 C 
HETATM    2  C   UNL     1      -0.827   1.365   0.377  1.00  0.00     0.034 C 
HETATM    3  C   UNL     1       0.363   0.726   1.067  1.00  0.00     0.013 C 
HETATM    4  C   UNL     1       1.309   0.048   0.099  1.00  0.00    -0.025 A 
HETATM    5  C   UNL     1       1.975  -1.087   0.787  1.00  0.00     0.021 A 
HETATM    6  C   UNL     1       2.831   0.028   0.299  1.00  0.00    -0.027 A 
HETATM    7  C   UNL     1       3.821  -0.522  -0.712  1.00  0.00     0.011 C 
HETATM    8  C   UNL     1       5.259  -0.425  -0.199  1.00  0.00     0.011 C 
HETATM    9  C   UNL     1       5.581   1.023   0.129  1.00  0.00    -0.028 C 
HETATM   10  C   UNL     1       5.520   1.823  -1.170  1.00  0.00     0.016 C 
HETATM   11  C   UNL     1       6.893   1.322   0.842  1.00  0.00     0.057 C 
HETATM   12  C   UNL     1       6.660   2.732   1.402  1.00  0.00     0.126 C 
HETATM   13  C   UNL     1       5.141   2.873   1.590  1.00  0.00     0.042 C 
HETATM   14  C   UNL     1       4.590   1.507   1.208  1.00  0.00    -0.029 C 
HETATM   15  C   UNL     1       4.676   0.658   2.482  1.00  0.00     0.016 C 
HETATM   16  C   UNL     1       3.141   1.431   0.747  1.00  0.00     0.006 C 
HETATM   17  C   UNL     1       2.811   2.369  -0.430  1.00  0.00     0.038 C 
HETATM   18  C   UNL     1       1.608   1.997  -1.317  1.00  0.00     0.124 C 
HETATM   19  C   UNL     1       1.155   0.513  -1.315  1.00  0.00     0.034 C 
HETATM   20  C   UNL     1      -0.267   0.244  -1.830  1.00  0.00    -0.015 C 
HETATM   21  C   UNL     1      -0.305  -1.190  -2.325  1.00  0.00     0.018 C 
HETATM   22  C   UNL     1      -0.600   1.110  -3.030  1.00  0.00     0.018 C 
ENDROOT
BRANCH   1  23
HETATM   23  O   UNL     1      -1.894  -0.669  -0.212  1.00  0.00    -0.352 OA
BRANCH  23  24
HETATM   24  C   UNL     1      -3.228  -0.825  -0.698  1.00  0.00     0.293 C 
HETATM   25  C   UNL     1      -3.744  -2.211  -0.290  1.00  0.00     0.218 C 
HETATM   26  C   UNL     1      -4.011  -2.207   1.196  1.00  0.00     0.183 C 
HETATM   27  C   UNL     1      -5.034  -1.151   1.552  1.00  0.00     0.180 C 
HETATM   28  C   UNL     1      -5.228  -0.125   0.448  1.00  0.00     0.180 C 
HETATM   29  O   UNL     1      -4.030   0.258  -0.213  1.00  0.00    -0.348 OA
BRANCH  25  30
HETATM   30  O   UNL     1      -2.843  -3.262  -0.648  1.00  0.00    -0.309 OA
BRANCH  30  31
HETATM   31  C   UNL     1      -2.870  -3.509  -1.981  1.00  0.00     0.255 C 
HETATM   32  C   UNL     1      -1.929  -4.618  -2.317  1.00  0.00     0.126 C 
HETATM   33  O   UNL     1      -3.560  -2.910  -2.794  1.00  0.00    -0.266 OA
ENDBRANCH  30  31
ENDBRANCH  25  30
BRANCH  26  34
HETATM   34  O   UNL     1      -4.514  -3.470   1.607  1.00  0.00    -0.390 OA
HETATM   35  H   UNL     1      -5.351  -3.649   1.150  1.00  0.00     0.210 HD
ENDBRANCH  26  34
BRANCH  27  36
HETATM   36  O   UNL     1      -4.578  -0.486   2.727  1.00  0.00    -0.390 OA
HETATM   37  H   UNL     1      -3.723  -0.064   2.548  1.00  0.00     0.210 HD
ENDBRANCH  27  36
BRANCH  28  38
HETATM   38  C   UNL     1      -6.298  -0.530  -0.557  1.00  0.00     0.205 C 
BRANCH  38  39
HETATM   39  O   UNL     1      -7.407  -1.133   0.099  1.00  0.00    -0.356 OA
BRANCH  39  40
HETATM   40  C   UNL     1      -8.442  -0.192   0.285  1.00  0.00     0.291 C 
HETATM   41  O   UNL     1      -8.042   0.985   0.964  1.00  0.00    -0.351 OA
HETATM   42  C   UNL     1      -9.169   1.542   1.640  1.00  0.00     0.152 C 
HETATM   43  C   UNL     1      -8.768   2.911   2.130  1.00  0.00     0.042 C 
HETATM   44  C   UNL     1     -10.404   1.658   0.751  1.00  0.00     0.178 C 
HETATM   45  C   UNL     1     -10.025   1.429  -0.700  1.00  0.00     0.183 C 
HETATM   46  C   UNL     1      -9.352   0.087  -0.908  1.00  0.00     0.204 C 
BRANCH  44  47
HETATM   47  O   UNL     1     -11.314   0.642   1.170  1.00  0.00    -0.390 OA
HETATM   48  H   UNL     1     -10.891  -0.226   1.083  1.00  0.00     0.210 HD
ENDBRANCH  44  47
BRANCH  45  49
HETATM   49  O   UNL     1     -11.161   1.544  -1.540  1.00  0.00    -0.390 OA
HETATM   50  H   UNL     1     -11.806   0.859  -1.306  1.00  0.00     0.210 HD
ENDBRANCH  45  49
BRANCH  46  51
HETATM   51  O   UNL     1      -8.634   0.131  -2.134  1.00  0.00    -0.388 OA
HETATM   52  H   UNL     1      -7.980   0.847  -2.100  1.00  0.00     0.210 HD
ENDBRANCH  46  51
ENDBRANCH  39  40
ENDBRANCH  38  39
ENDBRANCH  28  38
ENDBRANCH  23  24
ENDBRANCH   1  23
BRANCH  18  53
HETATM   53  O   UNL     1       1.917   2.415  -2.636  1.00  0.00    -0.395 OA
HETATM   54  H   UNL     1       2.688   1.923  -2.959  1.00  0.00     0.210 HD
ENDBRANCH  18  53
BRANCH  11  55
HETATM   55  C   UNL     1       8.220   1.137   0.123  1.00  0.00     0.065 C 
HETATM   56  C   UNL     1       8.531   2.269  -0.831  1.00  0.00     0.046 C 
HETATM   57  C   UNL     1       9.343   1.028   1.133  1.00  0.00     0.041 C 
HETATM   58  C   UNL     1       9.610  -0.449   1.243  1.00  0.00     0.038 C 
HETATM   59  C   UNL     1       9.170  -0.983  -0.098  1.00  0.00     0.156 C 
HETATM   60  O   UNL     1       8.203  -0.076  -0.631  1.00  0.00    -0.372 OA
BRANCH  59  61
HETATM   61  C   UNL     1       8.663  -2.416  -0.055  1.00  0.00     0.076 C 
HETATM   62  C   UNL     1       9.793  -3.358   0.294  1.00  0.00     0.048 C 
HETATM   63  C   UNL     1       8.073  -2.829  -1.382  1.00  0.00     0.048 C 
BRANCH  61  64
HETATM   64  O   UNL     1       7.656  -2.564   0.938  1.00  0.00    -0.388 OA
HETATM   65  H   UNL     1       8.013  -2.303   1.801  1.00  0.00     0.210 HD
ENDBRANCH  61  64
ENDBRANCH  59  61
ENDBRANCH  11  55
BRANCH  12  66
HETATM   66  O   UNL     1       7.309   2.873   2.651  1.00  0.00    -0.395 OA
HETATM   67  H   UNL     1       6.974   2.204   3.268  1.00  0.00     0.210 HD
ENDBRANCH  12  66
TORSDOF 17
