REMARK  20 active torsions:
REMARK  status: ('A' for Active; 'I' for Inactive)
REMARK       I    between atoms: C_2  and  N_4 
REMARK    1  A    between atoms: N_4  and  C_5 
REMARK    2  A    between atoms: C_6  and  O_7 
REMARK    3  A    between atoms: O_7  and  C_8 
REMARK    4  A    between atoms: C_9  and  C_10 
REMARK    5  A    between atoms: C_10  and  O_12 
REMARK    6  A    between atoms: C_14  and  O_15 
REMARK    7  A    between atoms: C_16  and  O_17 
REMARK    8  A    between atoms: C_18  and  O_19 
REMARK    9  A    between atoms: C_21  and  C_22 
REMARK   10  A    between atoms: C_22  and  O_23 
REMARK   11  A    between atoms: O_23  and  S_24 
REMARK   12  A    between atoms: S_24  and  O_27 
REMARK   13  A    between atoms: C_28  and  O_29 
REMARK   14  A    between atoms: O_29  and  C_30 
REMARK   15  A    between atoms: C_32  and  C_33 
REMARK   16  A    between atoms: C_33  and  O_35 
REMARK   17  A    between atoms: C_36  and  O_37 
REMARK   18  A    between atoms: C_38  and  O_39 
REMARK   19  A    between atoms: C_40  and  O_41 
REMARK   20  A    between atoms: C_42  and  O_43 
ROOT
HETATM    1  C   UNL     1      -1.440   1.806   0.301  1.00  0.00     0.170 C 
HETATM    2  C   UNL     1      -1.573   0.587  -0.601  1.00  0.00     0.286 C 
HETATM    3  O   UNL     1      -0.606   0.573  -1.637  1.00  0.00    -0.349 OA
HETATM    4  C   UNL     1       0.676   0.286  -1.085  1.00  0.00     0.181 C 
HETATM    5  C   UNL     1       0.988   1.089   0.182  1.00  0.00     0.186 C 
HETATM    6  C   UNL     1       0.012   2.240   0.398  1.00  0.00     0.177 C 
ENDROOT
BRANCH   2   7
HETATM    7  O   UNL     1      -2.891   0.454  -1.117  1.00  0.00    -0.348 OA
BRANCH   7   8
HETATM    8  C   UNL     1      -3.297  -0.885  -0.876  1.00  0.00     0.195 C 
HETATM    9  C   UNL     1      -4.791  -0.974  -0.635  1.00  0.00     0.253 C 
HETATM   10  O   UNL     1      -5.330  -2.267  -0.914  1.00  0.00    -0.340 OA
HETATM   11  C   UNL     1      -4.375  -3.291  -0.605  1.00  0.00     0.289 C 
HETATM   12  C   UNL     1      -3.329  -3.268  -1.703  1.00  0.00     0.204 C 
HETATM   13  C   UNL     1      -2.795  -1.870  -1.934  1.00  0.00     0.183 C 
BRANCH   9  14
HETATM   14  C   UNL     1      -5.065  -0.545   0.797  1.00  0.00     0.172 C 
HETATM   15  O   UNL     1      -5.306  -1.290   1.735  1.00  0.00    -0.648 OA
BRANCH  14  16
HETATM   16  O   UNL     1      -5.014   0.807   0.907  1.00  0.00    -0.774 OA
HETATM   17  H   UNL     1      -4.824   1.331   0.154  1.00  0.00     0.167 HD
ENDBRANCH  14  16
ENDBRANCH   9  14
BRANCH  11  18
HETATM   18  O   UNL     1      -5.008  -4.562  -0.600  1.00  0.00    -0.368 OA
HETATM   19  H   UNL     1      -5.406  -4.729  -1.469  1.00  0.00     0.212 HD
ENDBRANCH  11  18
BRANCH  12  20
HETATM   20  O   UNL     1      -2.268  -4.170  -1.448  1.00  0.00    -0.388 OA
HETATM   21  H   UNL     1      -1.803  -3.903  -0.640  1.00  0.00     0.210 HD
ENDBRANCH  12  20
BRANCH  13  22
HETATM   22  O   UNL     1      -3.219  -1.454  -3.233  1.00  0.00    -0.390 OA
HETATM   23  H   UNL     1      -4.188  -1.451  -3.272  1.00  0.00     0.210 HD
ENDBRANCH  13  22
ENDBRANCH   7   8
ENDBRANCH   2   7
BRANCH   1  24
HETATM   24  N   UNL     1      -2.000   1.490   1.602  1.00  0.00    -0.349 N 
HETATM   25  C   UNL     1      -2.117   2.404   2.610  1.00  0.00     0.214 C 
HETATM   26  C   UNL     1      -2.641   1.771   3.856  1.00  0.00     0.117 C 
HETATM   27  O   UNL     1      -1.853   3.598   2.532  1.00  0.00    -0.274 OA
HETATM   28  H   UNL     1      -2.310   0.570   1.767  1.00  0.00     0.163 HD
ENDBRANCH   1  24
BRANCH   6  29
HETATM   29  O   UNL     1       0.242   3.280  -0.558  1.00  0.00    -0.391 OA
HETATM   30  H   UNL     1       0.077   2.940  -1.451  1.00  0.00     0.210 HD
ENDBRANCH   6  29
BRANCH   4  31
HETATM   31  C   UNL     1       0.839  -1.229  -0.998  1.00  0.00     0.226 C 
BRANCH  31  32
HETATM   32  O   UNL     1       1.160  -1.736   0.280  1.00  0.00    -0.261 OA
BRANCH  32  33
HETATM   33  S   UNL     1      -0.047  -1.812   1.364  1.00  0.00     0.240 S 
HETATM   34  O   UNL     1      -1.282  -2.037   0.635  1.00  0.00    -0.579 OA
HETATM   35  O   UNL     1       0.082  -0.620   2.172  1.00  0.00    -0.579 OA
BRANCH  33  36
HETATM   36  O   UNL     1       0.305  -3.118   2.261  1.00  0.00    -0.274 OA
HETATM   37  H   UNL     1       0.218  -3.917   1.717  1.00  0.00     0.234 HD
ENDBRANCH  33  36
ENDBRANCH  32  33
ENDBRANCH  31  32
ENDBRANCH   4  31
BRANCH   5  38
HETATM   38  O   UNL     1       2.324   1.590   0.216  1.00  0.00    -0.348 OA
BRANCH  38  39
HETATM   39  C   UNL     1       3.249   0.508   0.294  1.00  0.00     0.292 C 
HETATM   40  O   UNL     1       3.888   0.384  -0.981  1.00  0.00    -0.340 OA
HETATM   41  C   UNL     1       4.663   1.553  -1.238  1.00  0.00     0.253 C 
HETATM   42  C   UNL     1       5.840   1.663  -0.296  1.00  0.00     0.189 C 
HETATM   43  C   UNL     1       5.676   0.810   0.945  1.00  0.00     0.183 C 
HETATM   44  C   UNL     1       4.233   0.810   1.414  1.00  0.00     0.204 C 
BRANCH  41  45
HETATM   45  C   UNL     1       5.202   1.575  -2.642  1.00  0.00     0.172 C 
HETATM   46  O   UNL     1       5.833   0.693  -3.195  1.00  0.00    -0.648 OA
BRANCH  45  47
HETATM   47  O   UNL     1       4.887   2.755  -3.228  1.00  0.00    -0.774 OA
HETATM   48  H   UNL     1       4.398   3.398  -2.754  1.00  0.00     0.167 HD
ENDBRANCH  45  47
ENDBRANCH  41  45
BRANCH  42  49
HETATM   49  O   UNL     1       5.964   3.028   0.081  1.00  0.00    -0.390 OA
HETATM   50  H   UNL     1       5.155   3.313   0.534  1.00  0.00     0.210 HD
ENDBRANCH  42  49
BRANCH  43  51
HETATM   51  O   UNL     1       6.130  -0.506   0.652  1.00  0.00    -0.390 OA
HETATM   52  H   UNL     1       5.603  -0.876  -0.074  1.00  0.00     0.210 HD
ENDBRANCH  43  51
BRANCH  44  53
HETATM   53  O   UNL     1       4.056  -0.120   2.478  1.00  0.00    -0.388 OA
HETATM   54  H   UNL     1       4.247  -1.016   2.160  1.00  0.00     0.210 HD
ENDBRANCH  44  53
ENDBRANCH  38  39
ENDBRANCH   5  38
TORSDOF 20
