REMARK  8 active torsions:
REMARK  status: ('A' for Active; 'I' for Inactive)
REMARK    1  A    between atoms: N_1  and  C_2 
REMARK    2  A    between atoms: C_2  and  C_3 
REMARK    3  A    between atoms: C_2  and  C_9 
REMARK    4  A    between atoms: C_3  and  O_4 
REMARK    5  A    between atoms: O_4  and  P_5 
REMARK    6  A    between atoms: P_5  and  O_7 
REMARK    7  A    between atoms: P_5  and  O_8 
REMARK    8  A    between atoms: C_9  and  O_11 
ROOT
HETATM    1  C   UNK     1       1.216  -0.372   1.231  1.00  0.00     0.338 C 
ENDROOT
BRANCH   1   2
HETATM    2  N   UNK     1       2.208  -1.389   0.917  1.00  0.00     0.095 N 
HETATM    3  H   UNK     1       1.941  -2.270   1.357  1.00  0.00     0.314 HD
HETATM    4  H   UNK     1       3.119  -1.096   1.269  1.00  0.00     0.314 HD
ENDBRANCH   1   2
BRANCH   1   5
HETATM    5  C   UNK     1      -0.207  -0.834   1.076  1.00  0.00     0.227 C 
BRANCH   5   6
HETATM    6  O   UNK     1      -0.554  -1.140  -0.263  1.00  0.00    -0.294 OA
BRANCH   6   7
HETATM    7  P   UNK     1      -1.667  -0.125  -0.847  1.00  0.00     0.390 P 
HETATM    8  O   UNK     1      -1.478   1.259  -0.307  1.00  0.00    -0.632 OA
BRANCH   7   9
HETATM    9  O   UNK     1      -1.549  -0.305  -2.444  1.00  0.00    -0.307 OA
HETATM   10  H   UNK     1      -0.728   0.105  -2.756  1.00  0.00     0.222 HD
ENDBRANCH   7   9
BRANCH   7  11
HETATM   11  O   UNK     1      -3.059  -0.843  -0.459  1.00  0.00    -0.307 OA
HETATM   12  H   UNK     1      -3.203  -0.775   0.498  1.00  0.00     0.222 HD
ENDBRANCH   7  11
ENDBRANCH   6   7
ENDBRANCH   5   6
ENDBRANCH   1   5
BRANCH   1  13
HETATM   13  C   UNK     1       1.576   0.939   0.601  1.00  0.00     0.176 C 
HETATM   14  O   UNK     1       1.980   1.904   1.246  1.00  0.00    -0.648 OA
BRANCH  13  15
HETATM   15  O   UNK     1       1.535   0.906  -0.752  1.00  0.00    -0.775 OA
HETATM   16  H   UNK     1       1.217   0.143  -1.193  1.00  0.00     0.167 HD
ENDBRANCH  13  15
ENDBRANCH   1  13
TORSDOF 8
