REMARK  14 active torsions:
REMARK  status: ('A' for Active; 'I' for Inactive)
REMARK    1  A    between atoms: O_2  and  C_3 
REMARK    2  A    between atoms: C_3  and  C_5 
REMARK    3  A    between atoms: C_18  and  O_19 
REMARK    4  A    between atoms: O_19  and  C_20 
REMARK    5  A    between atoms: C_22  and  C_23 
REMARK    6  A    between atoms: C_23  and  O_25 
REMARK    7  A    between atoms: C_26  and  O_27 
REMARK    8  A    between atoms: C_28  and  O_29 
REMARK    9  A    between atoms: C_30  and  O_31 
REMARK   10  A    between atoms: O_31  and  C_32 
REMARK   11  A    between atoms: C_35  and  O_36 
REMARK   12  A    between atoms: C_37  and  O_38 
REMARK   13  A    between atoms: C_39  and  O_40 
REMARK   14  A    between atoms: C_54  and  O_55 
ROOT
HETATM    1  C   UNL     1       6.010  -1.423   0.616  1.00  0.00     0.058 C 
HETATM    2  C   UNL     1       5.029  -2.555   0.917  1.00  0.00     0.022 C 
HETATM    3  C   UNL     1       4.129  -2.963  -0.229  1.00  0.00     0.016 C 
HETATM    4  C   UNL     1       3.450  -1.818  -0.981  1.00  0.00    -0.013 C 
HETATM    5  C   UNL     1       3.323  -2.295  -2.426  1.00  0.00     0.021 C 
HETATM    6  C   UNL     1       4.330  -0.595  -1.013  1.00  0.00    -0.069 C 
HETATM    7  C   UNL     1       3.815   0.636  -1.110  1.00  0.00    -0.022 C 
HETATM    8  C   UNL     1       2.359   0.916  -1.200  1.00  0.00     0.033 C 
HETATM    9  C   UNL     1       1.419  -0.295  -1.157  1.00  0.00     0.007 C 
HETATM   10  C   UNL     1       0.040   0.142  -0.622  1.00  0.00    -0.035 C 
HETATM   11  C   UNL     1      -1.003  -0.903  -0.979  1.00  0.00     0.016 C 
HETATM   12  C   UNL     1      -0.389   1.429  -1.329  1.00  0.00     0.012 C 
HETATM   13  C   UNL     1      -1.185   2.399  -0.482  1.00  0.00     0.034 C 
HETATM   14  C   UNL     1      -2.012   1.666   0.551  1.00  0.00     0.133 C 
HETATM   15  C   UNL     1      -1.124   0.941   1.560  1.00  0.00    -0.017 C 
HETATM   16  C   UNL     1      -0.644   1.889   2.646  1.00  0.00     0.018 C 
HETATM   17  C   UNL     1      -1.964  -0.126   2.237  1.00  0.00     0.018 C 
HETATM   18  C   UNL     1       0.113   0.346   0.890  1.00  0.00     0.004 C 
HETATM   19  C   UNL     1       0.750  -0.797   1.653  1.00  0.00     0.007 C 
HETATM   20  C   UNL     1       2.096  -1.184   1.080  1.00  0.00     0.011 C 
HETATM   21  C   UNL     1       2.037  -1.505  -0.413  1.00  0.00    -0.028 C 
HETATM   22  C   UNL     1       1.169  -2.748  -0.584  1.00  0.00     0.016 C 
HETATM   23  C   UNL     1       5.798  -0.784  -0.763  1.00  0.00     0.037 C 
HETATM   24  C   UNL     1       6.480  -1.491  -1.929  1.00  0.00    -0.003 C 
HETATM   25  C   UNL     1       6.497  -0.585  -3.145  1.00  0.00     0.011 C 
HETATM   26  C   UNL     1       7.886  -1.963  -1.615  1.00  0.00     0.015 C 
HETATM   27  C   UNL     1       8.444  -2.773  -2.767  1.00  0.00     0.013 C 
HETATM   28  C   UNL     1       7.904  -2.781  -0.342  1.00  0.00     0.123 C 
HETATM   29  C   UNL     1       7.423  -1.944   0.816  1.00  0.00     0.052 C 
ENDROOT
BRANCH  14  30
HETATM   30  O   UNL     1      -2.926   2.539   1.196  1.00  0.00    -0.352 OA
BRANCH  30  31
HETATM   31  C   UNL     1      -4.078   2.794   0.414  1.00  0.00     0.293 C 
HETATM   32  O   UNL     1      -3.832   3.711  -0.642  1.00  0.00    -0.340 OA
HETATM   33  C   UNL     1      -5.041   4.296  -1.080  1.00  0.00     0.253 C 
HETATM   34  C   UNL     1      -6.259   3.380  -1.044  1.00  0.00     0.189 C 
HETATM   35  C   UNL     1      -5.857   1.919  -1.127  1.00  0.00     0.183 C 
HETATM   36  C   UNL     1      -4.771   1.544  -0.131  1.00  0.00     0.211 C 
BRANCH  33  37
HETATM   37  C   UNL     1      -5.355   5.681  -0.555  1.00  0.00     0.172 C 
HETATM   38  O   UNL     1      -4.985   6.150   0.511  1.00  0.00    -0.648 OA
BRANCH  37  39
HETATM   39  O   UNL     1      -6.119   6.350  -1.457  1.00  0.00    -0.774 OA
HETATM   40  H   UNL     1      -6.370   5.934  -2.258  1.00  0.00     0.167 HD
ENDBRANCH  37  39
ENDBRANCH  33  37
BRANCH  34  41
HETATM   41  O   UNL     1      -6.997   3.561   0.157  1.00  0.00    -0.390 OA
HETATM   42  H   UNL     1      -6.442   3.324   0.916  1.00  0.00     0.210 HD
ENDBRANCH  34  41
BRANCH  35  43
HETATM   43  O   UNL     1      -5.373   1.651  -2.437  1.00  0.00    -0.390 OA
HETATM   44  H   UNL     1      -4.588   2.195  -2.609  1.00  0.00     0.210 HD
ENDBRANCH  35  43
BRANCH  36  45
HETATM   45  O   UNL     1      -5.287   0.732   0.918  1.00  0.00    -0.346 OA
BRANCH  45  46
HETATM   46  C   UNL     1      -5.408  -0.604   0.451  1.00  0.00     0.291 C 
HETATM   47  O   UNL     1      -4.143  -1.136   0.086  1.00  0.00    -0.356 OA
HETATM   48  C   UNL     1      -4.320  -2.397  -0.559  1.00  0.00     0.205 C 
HETATM   49  C   UNL     1      -5.133  -3.375   0.274  1.00  0.00     0.173 C 
HETATM   50  C   UNL     1      -5.408  -2.797   1.644  1.00  0.00     0.182 C 
HETATM   51  C   UNL     1      -6.087  -1.445   1.527  1.00  0.00     0.204 C 
BRANCH  49  52
HETATM   52  O   UNL     1      -4.413  -4.593   0.367  1.00  0.00    -0.391 OA
HETATM   53  H   UNL     1      -3.555  -4.429   0.788  1.00  0.00     0.210 HD
ENDBRANCH  49  52
BRANCH  50  54
HETATM   54  O   UNL     1      -6.184  -3.688   2.428  1.00  0.00    -0.390 OA
HETATM   55  H   UNL     1      -7.042  -3.832   2.000  1.00  0.00     0.210 HD
ENDBRANCH  50  54
BRANCH  51  56
HETATM   56  O   UNL     1      -7.451  -1.590   1.141  1.00  0.00    -0.388 OA
HETATM   57  H   UNL     1      -7.497  -2.017   0.271  1.00  0.00     0.210 HD
ENDBRANCH  51  56
ENDBRANCH  45  46
ENDBRANCH  36  45
ENDBRANCH  30  31
ENDBRANCH  14  30
BRANCH   1  58
HETATM   58  C   UNL     1       5.828  -0.345   1.673  1.00  0.00     0.268 C 
HETATM   59  O   UNL     1       5.074  -0.429   2.635  1.00  0.00    -0.264 OA
BRANCH  58  60
HETATM   60  O   UNL     1       6.642   0.720   1.423  1.00  0.00    -0.326 OA
HETATM   61  C   UNL     1       6.473   1.734   2.407  1.00  0.00     0.213 C 
ENDBRANCH  58  60
ENDBRANCH   1  58
BRANCH  28  62
HETATM   62  O   UNL     1       9.228  -3.198  -0.054  1.00  0.00    -0.395 OA
HETATM   63  H   UNL     1       9.793  -2.419   0.068  1.00  0.00     0.210 HD
ENDBRANCH  28  62
TORSDOF 14
