REMARK  24 active torsions:
REMARK  status: ('A' for Active; 'I' for Inactive)
REMARK    1  A    between atoms: N_1  and  C_2 
REMARK    2  A    between atoms: C_3  and  O_4 
REMARK    3  A    between atoms: O_4  and  C_5 
REMARK    4  A    between atoms: C_6  and  C_7 
REMARK    5  A    between atoms: C_7  and  O_9 
REMARK    6  A    between atoms: C_11  and  O_12 
REMARK    7  A    between atoms: O_12  and  C_13 
REMARK    8  A    between atoms: C_14  and  C_15 
REMARK    9  A    between atoms: C_15  and  O_16 
REMARK   10  A    between atoms: O_16  and  S_17 
REMARK   11  A    between atoms: S_17  and  O_20 
REMARK   12  A    between atoms: C_22  and  O_23 
REMARK   13  A    between atoms: C_24  and  N_25 
REMARK   14  A    between atoms: N_25  and  S_26 
REMARK   15  A    between atoms: S_26  and  O_29 
REMARK   16  A    between atoms: C_30  and  O_31 
REMARK   17  A    between atoms: C_32  and  O_33 
REMARK   18  A    between atoms: O_33  and  S_34 
REMARK   19  A    between atoms: S_34  and  O_37 
REMARK   20  A    between atoms: C_38  and  O_39 
REMARK   21  A    between atoms: C_41  and  C_42 
REMARK   22  A    between atoms: C_42  and  O_43 
REMARK   23  A    between atoms: C_44  and  O_45 
REMARK   24  A    between atoms: C_46  and  O_47 
ROOT
HETATM    1  C   UNL     1       1.908  -1.053   0.598  1.00  0.00     0.195 C 
HETATM    2  C   UNL     1       0.690  -1.435  -0.223  1.00  0.00     0.253 C 
HETATM    3  O   UNL     1      -0.486  -0.805   0.232  1.00  0.00    -0.340 OA
HETATM    4  C   UNL     1      -0.408   0.622   0.299  1.00  0.00     0.294 C 
HETATM    5  C   UNL     1       0.747   1.046   1.197  1.00  0.00     0.230 C 
HETATM    6  C   UNL     1       2.046   0.455   0.686  1.00  0.00     0.185 C 
ENDROOT
BRANCH   4   7
HETATM    7  O   UNL     1      -1.641   1.105   0.827  1.00  0.00    -0.348 OA
BRANCH   7   8
HETATM    8  C   UNL     1      -2.648   0.883  -0.158  1.00  0.00     0.186 C 
HETATM    9  C   UNL     1      -3.770  -0.019   0.328  1.00  0.00     0.181 C 
HETATM   10  O   UNL     1      -4.648  -0.401  -0.726  1.00  0.00    -0.350 OA
HETATM   11  C   UNL     1      -4.761   0.528  -1.814  1.00  0.00     0.278 C 
HETATM   12  C   UNL     1      -4.465   1.985  -1.484  1.00  0.00     0.159 C 
HETATM   13  C   UNL     1      -3.245   2.190  -0.622  1.00  0.00     0.173 C 
BRANCH   9  14
HETATM   14  C   UNL     1      -3.201  -1.232   1.042  1.00  0.00     0.226 C 
BRANCH  14  15
HETATM   15  O   UNL     1      -4.147  -2.243   1.315  1.00  0.00    -0.261 OA
BRANCH  15  16
HETATM   16  S   UNL     1      -3.667  -3.745   0.915  1.00  0.00     0.240 S 
HETATM   17  O   UNL     1      -2.258  -3.873   1.247  1.00  0.00    -0.579 OA
HETATM   18  O   UNL     1      -4.626  -4.686   1.461  1.00  0.00    -0.579 OA
BRANCH  16  19
HETATM   19  O   UNL     1      -3.801  -3.771  -0.709  1.00  0.00    -0.274 OA
HETATM   20  H   UNL     1      -3.166  -3.148  -1.096  1.00  0.00     0.234 HD
ENDBRANCH  16  19
ENDBRANCH  15  16
ENDBRANCH  14  15
ENDBRANCH   9  14
BRANCH  11  21
HETATM   21  O   UNL     1      -3.842   0.128  -2.834  1.00  0.00    -0.369 OA
HETATM   22  H   UNL     1      -2.936   0.185  -2.494  1.00  0.00     0.212 HD
ENDBRANCH  11  21
BRANCH  12  23
HETATM   23  N   UNL     1      -5.627   2.626  -0.837  1.00  0.00    -0.196 NA
HETATM   24  H   UNL     1      -5.302   3.385  -0.239  1.00  0.00     0.142 HD
BRANCH  23  25
HETATM   25  S   UNL     1      -6.692   3.252  -2.009  1.00  0.00     0.173 S 
HETATM   26  O   UNL     1      -7.920   3.630  -1.347  1.00  0.00    -0.589 OA
HETATM   27  O   UNL     1      -6.688   2.303  -3.106  1.00  0.00    -0.589 OA
BRANCH  25  28
HETATM   28  O   UNL     1      -5.950   4.609  -2.519  1.00  0.00    -0.283 OA
HETATM   29  H   UNL     1      -5.940   5.262  -1.802  1.00  0.00     0.233 HD
ENDBRANCH  25  28
ENDBRANCH  23  25
ENDBRANCH  12  23
BRANCH  13  30
HETATM   30  O   UNL     1      -2.259   2.912  -1.355  1.00  0.00    -0.391 OA
HETATM   31  H   UNL     1      -1.993   2.398  -2.133  1.00  0.00     0.210 HD
ENDBRANCH  13  30
ENDBRANCH   7   8
ENDBRANCH   4   7
BRANCH   5  32
HETATM   32  O   UNL     1       0.857   2.453   1.334  1.00  0.00    -0.251 OA
BRANCH  32  33
HETATM   33  S   UNL     1       1.829   2.957   2.538  1.00  0.00     0.241 S 
HETATM   34  O   UNL     1       2.923   3.690   1.935  1.00  0.00    -0.579 OA
HETATM   35  O   UNL     1       2.111   1.810   3.380  1.00  0.00    -0.579 OA
BRANCH  33  36
HETATM   36  O   UNL     1       0.899   3.999   3.373  1.00  0.00    -0.274 OA
HETATM   37  H   UNL     1       0.704   4.772   2.820  1.00  0.00     0.234 HD
ENDBRANCH  33  36
ENDBRANCH  32  33
ENDBRANCH   5  32
BRANCH   2  38
HETATM   38  C   UNL     1       0.933  -1.553  -1.721  1.00  0.00     0.172 C 
HETATM   39  O   UNL     1       1.499  -2.487  -2.276  1.00  0.00    -0.648 OA
BRANCH  38  40
HETATM   40  O   UNL     1       0.431  -0.482  -2.388  1.00  0.00    -0.774 OA
HETATM   41  H   UNL     1       0.006   0.207  -1.915  1.00  0.00     0.167 HD
ENDBRANCH  38  40
ENDBRANCH   2  38
BRANCH   6  42
HETATM   42  O   UNL     1       2.375   0.979  -0.594  1.00  0.00    -0.390 OA
HETATM   43  H   UNL     1       1.674   0.754  -1.225  1.00  0.00     0.210 HD
ENDBRANCH   6  42
BRANCH   1  44
HETATM   44  O   UNL     1       3.092  -1.695   0.140  1.00  0.00    -0.348 OA
BRANCH  44  45
HETATM   45  C   UNL     1       4.070  -1.703   1.175  1.00  0.00     0.296 C 
HETATM   46  C   UNL     1       4.989  -2.901   0.953  1.00  0.00     0.303 C 
HETATM   47  C   UNL     1       6.417  -2.456   0.707  1.00  0.00     0.187 C 
HETATM   48  C   UNL     1       6.504  -1.333  -0.306  1.00  0.00     0.180 C 
HETATM   49  C   UNL     1       5.445  -0.272  -0.049  1.00  0.00     0.179 C 
HETATM   50  O   UNL     1       4.792  -0.475   1.198  1.00  0.00    -0.349 OA
BRANCH  46  51
HETATM   51  N   UNL     1       4.940  -3.738   2.148  1.00  0.00     0.090 N 
HETATM   52  H   UNL     1       3.979  -4.037   2.314  1.00  0.00     0.313 HD
HETATM   53  H   UNL     1       5.273  -3.204   2.951  1.00  0.00     0.313 HD
ENDBRANCH  46  51
BRANCH  47  54
HETATM   54  O   UNL     1       7.198  -3.554   0.256  1.00  0.00    -0.391 OA
HETATM   55  H   UNL     1       6.844  -3.877  -0.587  1.00  0.00     0.210 HD
ENDBRANCH  47  54
BRANCH  48  56
HETATM   56  O   UNL     1       7.823  -0.806  -0.285  1.00  0.00    -0.390 OA
HETATM   57  H   UNL     1       8.019  -0.460   0.600  1.00  0.00     0.210 HD
ENDBRANCH  48  56
BRANCH  49  58
HETATM   58  C   UNL     1       5.874   1.170  -0.207  1.00  0.00     0.198 C 
BRANCH  58  59
HETATM   59  O   UNL     1       6.356   1.385  -1.528  1.00  0.00    -0.398 OA
HETATM   60  H   UNL     1       7.115   0.805  -1.693  1.00  0.00     0.209 HD
ENDBRANCH  58  59
ENDBRANCH  49  58
ENDBRANCH  44  45
ENDBRANCH   1  44
TORSDOF 24
