REMARK  4 active torsions:
REMARK  status: ('A' for Active; 'I' for Inactive)
REMARK    1  A    between atoms: C_2  and  N_3 
REMARK    2  A    between atoms: C_2  and  C_4 
REMARK    3  A    between atoms: C_8  and  C_9 
REMARK    4  A    between atoms: C_9  and  N_11 
ROOT
HETATM    1  C   UNL     1      -1.143  -0.254   0.263  1.00  0.00     0.010 A 
HETATM    2  C   UNL     1      -1.040  -1.639   0.130  1.00  0.00     0.015 A 
HETATM    3  C   UNL     1       0.163  -2.214  -0.273  1.00  0.00     0.002 A 
HETATM    4  C   UNL     1       1.265  -1.405  -0.543  1.00  0.00     0.015 A 
HETATM    5  C   UNL     1       1.163  -0.020  -0.411  1.00  0.00     0.010 A 
HETATM    6  C   UNL     1      -0.041   0.558  -0.008  1.00  0.00     0.030 A 
ENDROOT
BRANCH   1   7
HETATM    7  C   UNL     1      -2.425   0.354   0.691  1.00  0.00     0.123 C 
HETATM    8  N   UNL     1      -3.436  -0.424   0.937  1.00  0.00    -0.284 NA
HETATM    9  H   UNL     1      -4.296  -0.038   1.223  1.00  0.00     0.188 HD
BRANCH   7  10
HETATM   10  N   UNL     1      -2.491   1.726   0.812  1.00  0.00    -0.384 N 
HETATM   11  H   UNL     1      -3.331   2.156   1.095  1.00  0.00     0.157 HD
HETATM   12  H   UNL     1      -1.699   2.277   0.615  1.00  0.00     0.157 HD
ENDBRANCH   7  10
ENDBRANCH   1   7
BRANCH   5  13
HETATM   13  C   UNL     1       2.337   0.838  -0.700  1.00  0.00     0.123 C 
HETATM   14  N   UNL     1       3.447   0.276  -1.074  1.00  0.00    -0.284 NA
HETATM   15  H   UNL     1       3.498  -0.703  -1.161  1.00  0.00     0.188 HD
BRANCH  13  16
HETATM   16  N   UNL     1       2.201   2.204  -0.559  1.00  0.00    -0.384 N 
HETATM   17  H   UNL     1       1.340   2.586  -0.273  1.00  0.00     0.157 HD
HETATM   18  H   UNL     1       2.966   2.796  -0.744  1.00  0.00     0.157 HD
ENDBRANCH  13  16
ENDBRANCH   5  13
TORSDOF 4
