REMARK  1 active torsions:
REMARK  status: ('A' for Active; 'I' for Inactive)
REMARK    1  A    between atoms: C_7  and  N_8 
REMARK       I    between atoms: N_8  and  C_9 
REMARK       I    between atoms: C_9  and  N_11 
REMARK       I    between atoms: N_11  and  C_12 
REMARK       I    between atoms: C_12  and  N_14 
ROOT
HETATM    1  N   UNL     1       0.547  -0.341  -0.556  1.00  0.00    -0.190 N 
HETATM    2  C   UNL     1       1.634  -0.071   0.264  1.00  0.00     0.712 C 
HETATM    3  N   UNL     1       1.579   0.467   1.446  1.00  0.00    -0.117 NA
HETATM    4  N   UNL     1       2.812  -0.454  -0.348  1.00  0.00    -0.020 N 
HETATM    5  C   UNL     1       4.132  -0.398   0.042  1.00  0.00     0.705 C 
HETATM    6  N   UNL     1       4.572   0.071   1.172  1.00  0.00    -0.118 NA
HETATM    7  N   UNL     1       4.986  -0.908  -0.917  1.00  0.00    -0.233 N 
HETATM    8  H   UNL     1       0.740  -0.752  -1.430  1.00  0.00     0.184 HD
HETATM    9  H   UNL     1       0.709   0.720   1.832  1.00  0.00     0.206 HD
HETATM   10  H   UNL     1       2.682  -0.845  -1.242  1.00  0.00     0.203 HD
HETATM   11  H   UNL     1       3.939   0.428   1.837  1.00  0.00     0.206 HD
HETATM   12  H   UNL     1       4.623  -1.256  -1.764  1.00  0.00     0.174 HD
HETATM   13  H   UNL     1       5.956  -0.923  -0.754  1.00  0.00     0.174 HD
ENDROOT
BRANCH   1  14
HETATM   14  C   UNL     1      -0.808  -0.084  -0.260  1.00  0.00     0.050 A 
HETATM   15  C   UNL     1      -1.767  -0.428  -1.219  1.00  0.00     0.036 A 
HETATM   16  C   UNL     1      -3.125  -0.203  -0.994  1.00  0.00    -0.059 A 
HETATM   17  C   UNL     1      -3.544   0.373   0.201  1.00  0.00     0.013 A 
HETATM   18  C   UNL     1      -4.123  -0.579  -2.031  1.00  0.00     0.048 C 
HETATM   19  C   UNL     1      -2.604   0.722   1.165  1.00  0.00    -0.059 A 
HETATM   20  C   UNL     1      -3.042   1.339   2.447  1.00  0.00     0.048 C 
HETATM   21  C   UNL     1      -1.248   0.493   0.932  1.00  0.00     0.036 A 
ENDBRANCH   1  14
TORSDOF 1
