REMARK  0 active torsions:
REMARK  status: ('A' for Active; 'I' for Inactive)
REMARK       I    between atoms: N_1  and  C_8 
REMARK       I    between atoms: N_2  and  C_8 
REMARK       I    between atoms: N_4  and  C_9 
REMARK       I    between atoms: N_5  and  C_9 
ROOT
HETATM    1  N   UNL     1      -1.516  -0.360  -0.079  1.00  0.00    -0.223 N 
HETATM    2  N   UNL     1       0.717   0.215  -0.819  1.00  0.00     0.127 NA
HETATM    3  N   UNL     1      -0.660   1.874  -0.162  1.00  0.00    -0.115 NA
HETATM    4  N   UNL     1       2.901  -0.448  -0.336  1.00  0.00    -0.233 N 
HETATM    5  N   UNL     1       1.520  -0.030   1.435  1.00  0.00    -0.233 N 
HETATM    6  C   UNL     1      -1.298  -1.784  -0.308  1.00  0.00     0.168 C 
HETATM    7  C   UNL     1      -2.780   0.005   0.551  1.00  0.00     0.168 C 
HETATM    8  C   UNL     1      -0.526   0.593  -0.345  1.00  0.00     0.732 C 
HETATM    9  C   UNL     1       1.642  -0.066   0.063  1.00  0.00     0.707 C 
HETATM   10  H   UNL     1      -1.595   2.090   0.192  1.00  0.00     0.206 HD
HETATM   11  H   UNL     1       3.626  -0.669   0.337  1.00  0.00     0.174 HD
HETATM   12  H   UNL     1       3.139  -0.519  -1.319  1.00  0.00     0.174 HD
HETATM   13  H   UNL     1       0.652   0.231   1.889  1.00  0.00     0.174 HD
HETATM   14  H   UNL     1       2.301  -0.268   2.037  1.00  0.00     0.174 HD
ENDROOT
TORSDOF 0
