REMARK  12 active torsions:
REMARK  status: ('A' for Active; 'I' for Inactive)
REMARK    1  A    between atoms: S_1  and  C_17 
REMARK    2  A    between atoms: S_1  and  C_21 
REMARK    3  A    between atoms: O_3  and  C_13 
REMARK    4  A    between atoms: O_4  and  C_14 
REMARK    5  A    between atoms: O_5  and  C_26 
REMARK    6  A    between atoms: N_7  and  C_16 
REMARK    7  A    between atoms: N_11  and  C_23 
REMARK    8  A    between atoms: N_12  and  C_24 
REMARK    9  A    between atoms: C_15  and  C_17 
REMARK   10  A    between atoms: C_21  and  C_22 
REMARK   11  A    between atoms: C_22  and  C_24 
REMARK   12  A    between atoms: C_24  and  C_26 
ROOT
HETATM    1  O   UNK     1       0.002  -1.708   1.039  1.00  0.00    -0.355 OA
HETATM    2  C   UNK     1       0.056  -3.594  -0.413  1.00  0.00     0.180 C 
HETATM    3  C   UNK     1      -0.839  -2.530  -1.017  1.00  0.00     0.198 C 
HETATM    4  C   UNK     1       0.851  -2.802   0.620  1.00  0.00     0.165 C 
HETATM    5  C   UNK     1      -1.171  -1.686   0.204  1.00  0.00     0.262 C 
ENDROOT
BRANCH   4   6
HETATM    6  C   UNK     1       2.141  -2.221   0.059  1.00  0.00     0.108 C 
BRANCH   6   7
HETATM    7  S   UNK     1       3.033  -1.306   1.343  1.00  0.00    -0.166 SA
BRANCH   7   8
HETATM    8  C   UNK     1       4.454  -0.779   0.357  1.00  0.00     0.076 C 
BRANCH   8   9
HETATM    9  C   UNK     1       4.066   0.088  -0.844  1.00  0.00     0.056 C 
BRANCH   9  10
HETATM   10  C   UNK     1       3.312   1.383  -0.509  1.00  0.00     0.315 C 
BRANCH  10  11
HETATM   11  N   UNK     1       3.085   2.142  -1.743  1.00  0.00     0.093 N 
HETATM   12  H   UNK     1       2.542   1.577  -2.394  1.00  0.00     0.314 HD
HETATM   13  H   UNK     1       2.515   2.962  -1.538  1.00  0.00     0.314 HD
ENDBRANCH  10  11
BRANCH  10  14
HETATM   14  C   UNK     1       4.134   2.276   0.403  1.00  0.00     0.173 C 
HETATM   15  O   UNK     1       5.272   2.664   0.167  1.00  0.00    -0.648 OA
BRANCH  14  16
HETATM   16  O   UNK     1       3.456   2.634   1.524  1.00  0.00    -0.775 OA
HETATM   17  H   UNK     1       3.990   3.220   2.102  1.00  0.00     0.167 HD
ENDBRANCH  14  16
ENDBRANCH  10  14
ENDBRANCH   9  10
ENDBRANCH   8   9
ENDBRANCH   7   8
ENDBRANCH   6   7
ENDBRANCH   4   6
BRANCH   2  18
HETATM   18  O   UNK     1      -0.745  -4.561   0.265  1.00  0.00    -0.390 OA
HETATM   19  H   UNK     1      -1.220  -5.071  -0.414  1.00  0.00     0.210 HD
ENDBRANCH   2  18
BRANCH   5  20
HETATM   20  N   UNK     1      -1.529  -0.304  -0.107  1.00  0.00    -0.294 N 
HETATM   21  C   UNK     1      -2.680   0.346   0.242  1.00  0.00     0.167 A 
HETATM   22  N   UNK     1      -3.715  -0.145   0.939  1.00  0.00    -0.222 NA
HETATM   23  C   UNK     1      -2.550   1.623  -0.279  1.00  0.00     0.149 A 
HETATM   24  C   UNK     1      -4.673   0.796   1.087  1.00  0.00     0.237 A 
HETATM   25  N   UNK     1      -4.685   2.074   0.638  1.00  0.00    -0.222 NA
HETATM   26  C   UNK     1      -3.605   2.502  -0.059  1.00  0.00     0.155 A 
HETATM   27  N   UNK     1      -1.351   1.762  -0.931  1.00  0.00    -0.236 NA
HETATM   28  C   UNK     1      -0.763   0.590  -0.811  1.00  0.00     0.214 A 
BRANCH  26  29
HETATM   29  N   UNK     1      -3.559   3.818  -0.553  1.00  0.00    -0.382 N 
HETATM   30  H   UNK     1      -4.338   4.438  -0.380  1.00  0.00     0.157 HD
HETATM   31  H   UNK     1      -2.754   4.140  -1.073  1.00  0.00     0.157 HD
ENDBRANCH  26  29
ENDBRANCH   5  20
BRANCH   3  32
HETATM   32  O   UNK     1      -2.000  -3.062  -1.622  1.00  0.00    -0.388 OA
HETATM   33  H   UNK     1      -2.524  -3.509  -0.938  1.00  0.00     0.210 HD
ENDBRANCH   3  32
TORSDOF 12
