REMARK  7 active torsions:
REMARK  status: ('A' for Active; 'I' for Inactive)
REMARK    1  A    between atoms: O_1  and  C_6 
REMARK    2  A    between atoms: O_2  and  C_7 
REMARK    3  A    between atoms: O_3  and  C_8 
REMARK    4  A    between atoms: N_4  and  C_5 
REMARK    5  A    between atoms: C_5  and  C_6 
REMARK    6  A    between atoms: C_5  and  C_7 
REMARK    7  A    between atoms: C_5  and  C_8 
ROOT
HETATM    1  C   UNL     1      -0.003   0.276  -0.047  1.00  0.00     0.217 C 
ENDROOT
BRANCH   1   2
HETATM    2  N   UNL     1      -0.017   1.358  -1.045  1.00  0.00     0.094 N 
HETATM    3  H   UNL     1       0.837   1.323  -1.601  1.00  0.00     0.314 HD
HETATM    4  H   UNL     1      -0.009   2.262  -0.573  1.00  0.00     0.314 HD
ENDBRANCH   1   2
BRANCH   1   5
HETATM    5  C   UNL     1      -1.255   0.416   0.844  1.00  0.00     0.210 C 
BRANCH   5   6
HETATM    6  O   UNL     1      -2.446   0.353   0.068  1.00  0.00    -0.398 OA
HETATM    7  H   UNL     1      -2.392   1.054  -0.603  1.00  0.00     0.209 HD
ENDBRANCH   5   6
ENDBRANCH   1   5
BRANCH   1   8
HETATM    8  C   UNL     1       0.004  -1.060  -0.817  1.00  0.00     0.210 C 
BRANCH   8   9
HETATM    9  O   UNL     1       0.028  -2.156   0.091  1.00  0.00    -0.398 OA
HETATM   10  H   UNL     1       0.028  -2.968  -0.443  1.00  0.00     0.209 HD
ENDBRANCH   8   9
ENDBRANCH   1   8
BRANCH   1  11
HETATM   11  C   UNL     1       1.250   0.429   0.843  1.00  0.00     0.210 C 
BRANCH  11  12
HETATM   12  O   UNL     1       2.439   0.384   0.063  1.00  0.00    -0.398 OA
HETATM   13  H   UNL     1       2.577  -0.538  -0.212  1.00  0.00     0.209 HD
ENDBRANCH  11  12
ENDBRANCH   1  11
TORSDOF 7
