REMARK  6 active torsions:
REMARK  status: ('A' for Active; 'I' for Inactive)
REMARK    1  A    between atoms: AS_2  and  S_4 
REMARK    2  A    between atoms: S_4  and  C_5 
REMARK    3  A    between atoms: C_5  and  C_6 
REMARK    4  A    between atoms: C_6  and  N_7 
REMARK    5  A    between atoms: C_6  and  C_8 
REMARK    6  A    between atoms: C_8  and  O_10 
ROOT
HETATM    1  C   UNK     1       1.570   0.913  -1.274  1.00  0.00     0.324 C 
ENDROOT
BRANCH   1   2
HETATM    2  C   UNK     1      -0.040   0.711  -1.139  1.00  0.00     0.132 C 
BRANCH   2   3
HETATM    3  S   UNK     1      -0.388  -0.625  -0.020  1.00  0.00    -0.095 SA
BRANCH   3   4
HETATM    4 AS   UNK     1      -2.586  -0.885   0.151  1.00  0.00     0.000 As
HETATM    5  C   UNK     1      -2.979  -2.057   1.688  1.00  0.00     0.000 C 
HETATM    6  C   UNK     1      -3.432   0.862   0.465  1.00  0.00     0.000 C 
ENDBRANCH   3   4
ENDBRANCH   2   3
ENDBRANCH   1   2
BRANCH   1   7
HETATM    7  N   UNK     1       1.861  -0.512  -1.814  1.00  0.00     0.094 N 
HETATM    8  H   UNK     1       1.387  -1.201  -1.229  1.00  0.00     0.314 HD
HETATM    9  H   UNK     1       2.866  -0.685  -1.795  1.00  0.00     0.314 HD
ENDBRANCH   1   7
BRANCH   1  10
HETATM   10  C   UNK     1       1.895   0.658   0.240  1.00  0.00     0.174 C 
HETATM   11  O   UNK     1       1.804   1.529   1.081  1.00  0.00    -0.648 OA
BRANCH  10  12
HETATM   12  O   UNK     1       2.295  -0.591   0.622  1.00  0.00    -0.775 OA
HETATM   13  H   UNK     1       2.370  -1.274  -0.015  1.00  0.00     0.167 HD
ENDBRANCH  10  12
ENDBRANCH   1  10
TORSDOF 6
