REMARK  12 active torsions:
REMARK  status: ('A' for Active; 'I' for Inactive)
REMARK    1  A    between atoms: N_1  and  C_2 
REMARK    2  A    between atoms: N_10  and  C_11 
REMARK    3  A    between atoms: C_13  and  C_14 
REMARK    4  A    between atoms: C_14  and  SE_15 
REMARK    5  A    between atoms: SE_15  and  C_16 
REMARK    6  A    between atoms: C_16  and  C_17 
REMARK    7  A    between atoms: C_17  and  CA_18 
REMARK    8  A    between atoms: CA_18  and  N_19 
REMARK    9  A    between atoms: CA_18  and  C_20 
REMARK   10  A    between atoms: C_20  and  OXT_22 
REMARK   11  A    between atoms: C_23  and  O_24 
REMARK   12  A    between atoms: C_25  and  O_26 
ROOT
HETATM    1  C   UNL     1      -2.640   3.189   0.000  1.00  0.00     0.262 A 
HETATM    2  O   UNL     1      -3.854   2.308   0.000  1.00  0.00    -0.356 OA
HETATM    3  C   UNL     1      -5.067   3.189   0.000  1.00  0.00     0.155 A 
HETATM    4  C   UNL     1      -4.604   4.616   0.000  1.00  0.00     0.180 A 
HETATM    5  C   UNL     1      -3.104   4.616   0.000  1.00  0.00     0.198 A 
ENDROOT
BRANCH   1   6
HETATM    6  N   UNL     1      -1.214   2.726   0.000  1.00  0.00    -0.294 N 
HETATM    7  C   UNL     1      -0.750   1.299   0.000  1.00  0.00     0.167 A 
HETATM    8  N   UNL     1      -1.500   0.000   0.000  1.00  0.00    -0.222 NA
HETATM    9  C   UNL     1       0.750   1.299   0.000  1.00  0.00     0.149 A 
HETATM   10  C   UNL     1      -0.750  -1.299   0.000  1.00  0.00     0.237 A 
HETATM   11  N   UNL     1       0.750  -1.299   0.000  1.00  0.00    -0.222 NA
HETATM   12  C   UNL     1       1.500   0.000   0.000  1.00  0.00     0.155 A 
HETATM   13  N   UNL     1       1.214   2.726   0.000  1.00  0.00    -0.236 NA
HETATM   14  C   UNL     1       0.000   3.607   0.000  1.00  0.00     0.214 A 
BRANCH  12  15
HETATM   15  N   UNL     1       3.000   0.000   0.000  1.00  0.00    -0.382 N 
HETATM   16  H   UNL     1       3.492  -0.853   0.000  1.00  0.00     0.157 HD
HETATM   17  H   UNL     1       3.492   0.853   0.000  1.00  0.00     0.157 HD
ENDBRANCH  12  15
ENDBRANCH   1   6
BRANCH   5  18
HETATM   18  O   UNL     1      -2.222   5.829   0.000  1.00  0.00    -0.388 OA
HETATM   19  H   UNL     1      -1.257   5.728   0.000  1.00  0.00     0.210 HD
ENDBRANCH   5  18
BRANCH   3  20
HETATM   20  C   UNL     1      -6.494   2.726   0.000  1.00  0.00     0.037 C 
BRANCH  20  21
HETATM   21 SE   UNL     1      -7.609   3.729   0.000  1.00  0.00     0.000 Se
BRANCH  21  22
HETATM   22  C   UNL     1      -9.035   3.266   0.000  1.00  0.00     0.007 C 
BRANCH  22  23
HETATM   23  C   UNL     1     -10.150   4.269   0.000  1.00  0.00     0.035 C 
BRANCH  23  24
HETATM   24  CA  UNL     1     -11.576   3.806   0.000  1.00  0.00     0.169 C 
BRANCH  24  25
HETATM   25  N   UNL     1     -11.888   2.339   0.000  1.00  0.00    -0.418 N 
HETATM   26  H1  UNL     1     -12.858   2.023   0.000  1.00  0.00     0.150 HD
HETATM   27  H2  UNL     1     -11.130   1.656   0.000  1.00  0.00     0.150 HD
ENDBRANCH  24  25
BRANCH  24  28
HETATM   28  C   UNL     1     -12.691   4.810   0.000  1.00  0.00     0.163 C 
HETATM   29  O   UNL     1     -12.379   6.277   0.000  1.00  0.00    -0.648 OA
BRANCH  28  30
HETATM   30  OXT UNL     1     -14.118   4.346   0.000  1.00  0.00    -0.775 OA
HETATM   31  HXT UNL     1     -14.814   4.973   0.000  1.00  0.00     0.167 HD
ENDBRANCH  28  30
ENDBRANCH  24  28
ENDBRANCH  23  24
ENDBRANCH  22  23
ENDBRANCH  21  22
ENDBRANCH  20  21
ENDBRANCH   3  20
BRANCH   4  32
HETATM   32  O   UNL     1      -5.485   5.829   0.000  1.00  0.00    -0.390 OA
HETATM   33  H   UNL     1      -5.091   6.715   0.000  1.00  0.00     0.210 HD
ENDBRANCH   4  32
TORSDOF 12
