REMARK  7 active torsions:
REMARK  status: ('A' for Active; 'I' for Inactive)
REMARK    1  A    between atoms: O2*_2  and  C2*_11 
REMARK    2  A    between atoms: O3*_3  and  C3*_10 
REMARK    3  A    between atoms: O5*_4  and  C5*_14 
REMARK    4  A    between atoms: N_5  and  C1*_13 
REMARK    5  A    between atoms: N_8  and  C_17 
REMARK    6  A    between atoms: C4*_12  and  C5*_14 
REMARK    7  A    between atoms: C_16  and  C_17 
ROOT
HETATM    1  O4* UNL     1       1.385  -0.549  -1.003  1.00  0.00    -0.352 OA
HETATM    2  C3* UNL     1       3.037   0.268   0.504  1.00  0.00     0.182 C 
HETATM    3  C2* UNL     1       1.723   0.972   0.780  1.00  0.00     0.200 C 
HETATM    4  C4* UNL     1       2.592  -0.944  -0.310  1.00  0.00     0.179 C 
HETATM    5  C1* UNL     1       0.979   0.748  -0.528  1.00  0.00     0.279 C 
ENDROOT
BRANCH   5   6
HETATM    6  N   UNL     1      -0.475   0.794  -0.401  1.00  0.00    -0.229 N 
HETATM    7  N   UNL     1      -1.172  -0.301  -0.060  1.00  0.00    -0.145 NA
HETATM    8  C   UNL     1      -2.417   0.181  -0.062  1.00  0.00     0.215 A 
HETATM    9  N   UNL     1      -2.542   1.502  -0.382  1.00  0.00    -0.218 NA
HETATM   10  C   UNL     1      -1.297   1.861  -0.590  1.00  0.00     0.234 A 
BRANCH   8  11
HETATM   11  C   UNL     1      -3.542  -0.647   0.251  1.00  0.00     0.164 C 
HETATM   12  N   UNL     1      -3.359  -1.907   0.561  1.00  0.00    -0.281 NA
HETATM   13  H   UNL     1      -4.274  -2.329   0.756  1.00  0.00     0.188 HD
BRANCH  11  14
HETATM   14  N   UNL     1      -4.788  -0.049   0.220  1.00  0.00    -0.381 N 
HETATM   15  H   UNL     1      -5.627  -0.576   0.437  1.00  0.00     0.157 HD
HETATM   16  H   UNL     1      -4.907   0.931  -0.018  1.00  0.00     0.157 HD
ENDBRANCH  11  14
ENDBRANCH   8  11
ENDBRANCH   5   6
BRANCH   3  17
HETATM   17  O2* UNL     1       1.882   2.346   1.068  1.00  0.00    -0.388 OA
HETATM   18  H2* UNL     1       2.390   2.748   0.344  1.00  0.00     0.210 HD
ENDBRANCH   3  17
BRANCH   4  19
HETATM   19  C5* UNL     1       2.274  -2.155   0.555  1.00  0.00     0.198 C 
BRANCH  19  20
HETATM   20  O5* UNL     1       1.863  -3.218  -0.287  1.00  0.00    -0.398 OA
HETATM   21  H5* UNL     1       1.082  -2.915  -0.782  1.00  0.00     0.209 HD
ENDBRANCH  19  20
ENDBRANCH   4  19
BRANCH   2  22
HETATM   22  O3* UNL     1       3.858   1.097  -0.317  1.00  0.00    -0.390 OA
HETATM   23  H3* UNL     1       4.670   0.599  -0.513  1.00  0.00     0.210 HD
ENDBRANCH   2  22
TORSDOF 7
