REMARK  3 active torsions:
REMARK  status: ('A' for Active; 'I' for Inactive)
REMARK    1  A    between atoms: O_1  and  C_9 
REMARK    2  A    between atoms: O_2  and  C_10 
REMARK    3  A    between atoms: N_3  and  C_8 
REMARK       I    between atoms: N_4  and  C_14 
REMARK       I    between atoms: N_5  and  C_14 
REMARK       I    between atoms: N_6  and  C_17 
REMARK       I    between atoms: N_7  and  C_17 
ROOT
HETATM    1  N   UNL     1       1.013   0.531  -0.657  1.00  0.00    -0.063 NA
HETATM    2  N   UNL     1       3.106   1.068   0.004  1.00  0.00     0.127 NA
HETATM    3  N   UNL     1       1.482   0.713   1.693  1.00  0.00    -0.230 N 
HETATM    4  N   UNL     1       5.266   0.327  -0.471  1.00  0.00    -0.233 N 
HETATM    5  N   UNL     1       3.704  -1.261   0.036  1.00  0.00    -0.233 N 
HETATM    6  C   UNL     1       1.809   0.749   0.353  1.00  0.00     0.736 C 
HETATM    7  C   UNL     1       3.957   0.083  -0.129  1.00  0.00     0.707 C 
HETATM    8  H   UNL     1       2.180   0.906   2.402  1.00  0.00     0.174 HD
HETATM    9  H   UNL     1       0.546   0.493   2.017  1.00  0.00     0.174 HD
HETATM   10  H   UNL     1       5.599   1.272  -0.626  1.00  0.00     0.174 HD
HETATM   11  H   UNL     1       5.935  -0.427  -0.577  1.00  0.00     0.174 HD
HETATM   12  H   UNL     1       2.785  -1.607   0.288  1.00  0.00     0.174 HD
HETATM   13  H   UNL     1       4.436  -1.951  -0.091  1.00  0.00     0.174 HD
ENDROOT
BRANCH   1  14
HETATM   14  C   UNL     1      -0.329   0.200  -0.405  1.00  0.00     0.081 A 
HETATM   15  C   UNL     1      -0.695  -1.135  -0.259  1.00  0.00     0.069 A 
HETATM   16  C   UNL     1      -2.027  -1.464  -0.008  1.00  0.00     0.073 A 
HETATM   17  C   UNL     1      -2.987  -0.457   0.096  1.00  0.00     0.073 A 
HETATM   18  C   UNL     1      -2.614   0.880  -0.050  1.00  0.00     0.073 A 
HETATM   19  C   UNL     1      -1.282   1.209  -0.301  1.00  0.00     0.069 A 
BRANCH  16  20
HETATM   20  O   UNL     1      -2.391  -2.767   0.135  1.00  0.00    -0.356 OA
HETATM   21  C   UNL     1      -1.359  -3.746   0.017  1.00  0.00     0.210 C 
ENDBRANCH  16  20
BRANCH  18  22
HETATM   22  O   UNL     1      -3.550   1.863   0.052  1.00  0.00    -0.356 OA
HETATM   23  C   UNL     1      -3.100   3.207  -0.108  1.00  0.00     0.210 C 
ENDBRANCH  18  22
ENDBRANCH   1  14
TORSDOF 3
