REMARK  3 active torsions:
REMARK  status: ('A' for Active; 'I' for Inactive)
REMARK    1  A    between atoms: N_4  and  C_6 
REMARK    2  A    between atoms: N_5  and  C_8 
REMARK    3  A    between atoms: C_8  and  C_11 
ROOT
HETATM    1  S   UNL     1      -0.214   1.947  -1.641  1.00  0.00     0.060 SA
HETATM    2  O   UNL     1       0.264   0.528   1.839  1.00  0.00    -0.245 OA
HETATM    3  O   UNL     1       2.351   2.449  -1.858  1.00  0.00    -0.258 OA
HETATM    4  N   UNL     1      -0.718   1.233  -0.171  1.00  0.00    -0.227 N 
HETATM    5  N   UNL     1       1.551   1.469   0.118  1.00  0.00    -0.254 N 
HETATM    6  C   UNL     1       0.355   1.022   0.717  1.00  0.00     0.343 A 
HETATM    7  C   UNL     1       1.464   2.001  -1.148  1.00  0.00     0.311 A 
ENDROOT
BRANCH   4   8
HETATM    8  C   UNL     1      -2.047   0.897   0.118  1.00  0.00     0.062 A 
HETATM    9  C   UNL     1      -2.576  -0.365  -0.198  1.00  0.00     0.002 A 
HETATM   10  C   UNL     1      -3.926  -0.648   0.117  1.00  0.00    -0.024 A 
HETATM   11  C   UNL     1      -1.794  -1.353  -0.820  1.00  0.00     0.014 A 
HETATM   12  C   UNL     1      -4.708   0.340   0.738  1.00  0.00     0.012 A 
HETATM   13  C   UNL     1      -4.456  -1.910  -0.200  1.00  0.00     0.012 A 
HETATM   14  C   UNL     1      -4.165   1.589   1.045  1.00  0.00     0.003 A 
HETATM   15  C   UNL     1      -2.837   1.867   0.735  1.00  0.00     0.031 A 
HETATM   16  C   UNL     1      -3.665  -2.879  -0.817  1.00  0.00     0.001 A 
HETATM   17  C   UNL     1      -2.337  -2.601  -1.126  1.00  0.00     0.001 A 
ENDBRANCH   4   8
BRANCH   5  18
HETATM   18  C   UNL     1       2.813   1.366   0.828  1.00  0.00     0.176 C 
BRANCH  18  19
HETATM   19  C   UNL     1       3.487   0.051   0.546  1.00  0.00    -0.040 A 
HETATM   20  C   UNL     1       4.365  -0.053  -0.524  1.00  0.00     0.009 A 
HETATM   21  C   UNL     1       4.990  -1.272  -0.786  1.00  0.00     0.001 A 
HETATM   22  C   UNL     1       4.732  -2.376   0.026  1.00  0.00     0.000 A 
HETATM   23  C   UNL     1       3.848  -2.261   1.100  1.00  0.00     0.001 A 
HETATM   24  C   UNL     1       3.223  -1.042   1.361  1.00  0.00     0.009 A 
ENDBRANCH  18  19
ENDBRANCH   5  18
TORSDOF 3
