REMARK  1 active torsions:
REMARK  status: ('A' for Active; 'I' for Inactive)
REMARK    1  A    between atoms: N_10  and  C_11 
ROOT
HETATM    1  O   UNL     1      -0.289  -1.245   1.549  1.00  0.00    -0.169 OA
HETATM    2  C   UNL     1      -0.584  -0.426   0.541  1.00  0.00     0.212 A 
HETATM    3  C   UNL     1      -1.804  -0.119   0.196  1.00  0.00     0.031 A 
HETATM    4  C   UNL     1      -2.998  -0.612   0.844  1.00  0.00     0.017 A 
HETATM    5  C   UNL     1      -4.232  -0.269   0.454  1.00  0.00     0.001 A 
HETATM    6  C   UNL     1      -4.476   0.580  -0.592  1.00  0.00     0.001 A 
HETATM    7  C   UNL     1      -3.345   1.100  -1.272  1.00  0.00     0.013 A 
HETATM    8  C   UNL     1      -2.165   0.727  -0.843  1.00  0.00    -0.010 A 
HETATM    9 SE   UNL     1      -0.299   1.162  -1.440  1.00  0.00     0.000 Se
HETATM   10  N   UNL     1       0.503   0.053  -0.087  1.00  0.00    -0.222 N 
ENDROOT
BRANCH  10  11
HETATM   11  C   UNL     1       1.912  -0.059   0.011  1.00  0.00     0.059 A 
HETATM   12  C   UNL     1       2.544  -1.249  -0.289  1.00  0.00     0.031 A 
HETATM   13  C   UNL     1       3.898  -1.358  -0.196  1.00  0.00     0.002 A 
HETATM   14  C   UNL     1       4.656  -0.258   0.206  1.00  0.00     0.000 A 
HETATM   15  C   UNL     1       4.016   0.919   0.501  1.00  0.00     0.002 A 
HETATM   16  C   UNL     1       2.664   1.057   0.417  1.00  0.00     0.031 A 
ENDBRANCH  10  11
TORSDOF 1
