REMARK  0 active torsions:
REMARK  status: ('A' for Active; 'I' for Inactive)
REMARK       I    between atoms: N_1  and  C_7 
REMARK       I    between atoms: N_2  and  C_6 
REMARK       I    between atoms: N_3  and  C_6 
REMARK       I    between atoms: N_4  and  C_7 
ROOT
HETATM    1  N   UNL     1      -0.056   0.774   0.133  1.00  0.00     0.126 NA
HETATM    2  N   UNL     1      -2.377   0.556   0.132  1.00  0.00    -0.233 N 
HETATM    3  N   UNL     1      -1.151  -1.337  -0.228  1.00  0.00    -0.233 N 
HETATM    4  N   UNL     1       1.839  -0.306   1.115  1.00  0.00    -0.231 N 
HETATM    5  N   UNL     1       1.683   0.120  -1.183  1.00  0.00    -0.116 NA
HETATM    6  C   UNL     1      -1.117   0.018   0.017  1.00  0.00     0.707 C 
HETATM    7  C   UNL     1       1.178   0.175   0.014  1.00  0.00     0.728 C 
HETATM    8  H   UNL     1      -2.510   1.545   0.312  1.00  0.00     0.174 HD
HETATM    9  H   UNL     1      -3.208  -0.018   0.044  1.00  0.00     0.174 HD
HETATM   10  H   UNL     1      -2.032  -1.834  -0.302  1.00  0.00     0.174 HD
HETATM   11  H   UNL     1      -0.304  -1.882  -0.342  1.00  0.00     0.174 HD
HETATM   12  H   UNL     1       1.431  -0.244   2.042  1.00  0.00     0.174 HD
HETATM   13  H   UNL     1       2.753  -0.740   1.038  1.00  0.00     0.174 HD
HETATM   14  H   UNL     1       2.601  -0.336  -1.133  1.00  0.00     0.206 HD
ENDROOT
TORSDOF 0
