REMARK  17 active torsions:
REMARK  status: ('A' for Active; 'I' for Inactive)
REMARK    1  A    between atoms: P_1  and  O_5 
REMARK    2  A    between atoms: P_1  and  O_6 
REMARK    3  A    between atoms: P_1  and  N_12 
REMARK    4  A    between atoms: O_3  and  C_17 
REMARK    5  A    between atoms: O_4  and  C_18 
REMARK    6  A    between atoms: O_5  and  C_21 
REMARK    7  A    between atoms: O_6  and  C_35 
REMARK    8  A    between atoms: O_8  and  C_30 
REMARK    9  A    between atoms: O_8  and  C_33 
REMARK   10  A    between atoms: N_12  and  C_27 
REMARK   11  A    between atoms: N_15  and  C_26 
REMARK   12  A    between atoms: C_16  and  C_20 
REMARK   13  A    between atoms: C_19  and  C_21 
REMARK   14  A    between atoms: C_27  and  C_33 
REMARK   15  A    between atoms: C_29  and  C_30 
REMARK   16  A    between atoms: C_29  and  C_31 
REMARK   17  A    between atoms: C_29  and  C_32 
ROOT
HETATM    1  O   UNL     1      -2.838   2.015  -0.798  1.00  0.00    -0.347 OA
HETATM    2  N   UNL     1      -6.069   2.937  -1.040  1.00  0.00    -0.193 NA
HETATM    3  C   UNL     1      -3.960   1.843   0.106  1.00  0.00     0.222 C 
HETATM    4  C   UNL     1      -3.530   2.582   1.390  1.00  0.00     0.205 C 
HETATM    5  C   UNL     1      -2.585   3.657   0.888  1.00  0.00     0.182 C 
HETATM    6  C   UNL     1      -1.879   2.945  -0.253  1.00  0.00     0.180 C 
HETATM    7  C   UNL     1      -5.142   2.456  -0.536  1.00  0.00     0.107 C 
ENDROOT
BRANCH   3   8
HETATM    8  C   UNL     1      -4.218   0.357   0.347  1.00  0.00     0.088 A 
HETATM    9  N   UNL     1      -3.901  -0.599  -0.583  1.00  0.00    -0.229 N 
HETATM   10  N   UNL     1      -3.340  -0.391  -1.799  1.00  0.00    -0.160 NA
HETATM   11  C   UNL     1      -4.242  -1.835  -0.100  1.00  0.00     0.104 A 
HETATM   12  C   UNL     1      -3.150  -1.486  -2.479  1.00  0.00     0.258 A 
HETATM   13  N   UNL     1      -3.452  -2.781  -2.095  1.00  0.00    -0.221 NA
HETATM   14  C   UNL     1      -3.995  -2.995  -0.923  1.00  0.00     0.151 A 
HETATM   15  C   UNL     1      -4.784  -1.670   1.156  1.00  0.00     0.038 A 
HETATM   16  C   UNL     1      -4.768  -0.281   1.438  1.00  0.00     0.034 A 
BRANCH  14  17
HETATM   17  N   UNL     1      -4.308  -4.269  -0.513  1.00  0.00    -0.382 N 
HETATM   18  H   UNL     1      -4.727  -4.456   0.392  1.00  0.00     0.157 HD
HETATM   19  H   UNL     1      -4.123  -5.068  -1.110  1.00  0.00     0.157 HD
ENDBRANCH  14  17
ENDBRANCH   3   8
BRANCH   4  20
HETATM   20  O   UNL     1      -4.603   3.107   2.147  1.00  0.00    -0.388 OA
HETATM   21  H   UNL     1      -4.220   3.626   2.876  1.00  0.00     0.210 HD
ENDBRANCH   4  20
BRANCH   6  22
HETATM   22  C   UNL     1      -0.655   2.156   0.194  1.00  0.00     0.214 C 
BRANCH  22  23
HETATM   23  O   UNL     1      -0.076   1.522  -0.934  1.00  0.00    -0.295 OA
BRANCH  23  24
HETATM   24  P   UNL     1       0.719   0.110  -0.767  1.00  0.00     0.436 P 
HETATM   25  O   UNL     1       1.057  -0.466  -2.119  1.00  0.00    -0.234 OA
BRANCH  24  26
HETATM   26  O   UNL     1      -0.389  -0.777   0.019  1.00  0.00    -0.256 OA
BRANCH  26  27
HETATM   27  C   UNL     1      -0.181  -2.023   0.546  1.00  0.00     0.080 A 
HETATM   28  C   UNL     1       0.745  -2.884  -0.043  1.00  0.00     0.037 A 
HETATM   29  C   UNL     1       0.957  -4.154   0.494  1.00  0.00     0.003 A 
HETATM   30  C   UNL     1       0.243  -4.563   1.621  1.00  0.00     0.000 A 
HETATM   31  C   UNL     1      -0.683  -3.702   2.209  1.00  0.00     0.003 A 
HETATM   32  C   UNL     1      -0.895  -2.432   1.672  1.00  0.00     0.037 A 
ENDBRANCH  26  27
ENDBRANCH  24  26
BRANCH  24  33
HETATM   33  N   UNL     1       1.978   0.374   0.277  1.00  0.00    -0.314 N 
HETATM   34  H   UNL     1       1.771   0.795   1.181  1.00  0.00     0.166 HD
BRANCH  33  35
HETATM   35  C   UNL     1       3.228   0.906  -0.262  1.00  0.00     0.183 C 
HETATM   36  C   UNL     1       3.212   2.427  -0.193  1.00  0.00     0.043 C 
BRANCH  35  37
HETATM   37  C   UNL     1       4.374   0.345   0.560  1.00  0.00     0.281 C 
HETATM   38  O   UNL     1       4.256  -0.390   1.531  1.00  0.00    -0.263 OA
BRANCH  37  39
HETATM   39  O   UNL     1       5.567   0.785   0.044  1.00  0.00    -0.319 OA
BRANCH  39  40
HETATM   40  C   UNL     1       6.737   0.334   0.712  1.00  0.00     0.183 C 
BRANCH  40  41
HETATM   41  C   UNL     1       7.992   0.903   0.030  1.00  0.00     0.009 C 
BRANCH  41  42
HETATM   42  C   UNL     1       8.020   0.613  -1.488  1.00  0.00     0.002 C 
HETATM   43  C   UNL     1       8.092  -0.861  -1.864  1.00  0.00     0.005 C 
ENDBRANCH  41  42
BRANCH  41  44
HETATM   44  C   UNL     1       9.247   0.422   0.785  1.00  0.00     0.002 C 
HETATM   45  C   UNL     1      10.547   1.007   0.253  1.00  0.00     0.005 C 
ENDBRANCH  41  44
ENDBRANCH  40  41
ENDBRANCH  39  40
ENDBRANCH  37  39
ENDBRANCH  35  37
ENDBRANCH  33  35
ENDBRANCH  24  33
ENDBRANCH  23  24
ENDBRANCH  22  23
ENDBRANCH   6  22
BRANCH   5  46
HETATM   46  O   UNL     1      -3.330   4.756   0.368  1.00  0.00    -0.390 OA
HETATM   47  H   UNL     1      -2.692   5.395   0.008  1.00  0.00     0.210 HD
ENDBRANCH   5  46
TORSDOF 17
