REMARK  2 active torsions:
REMARK  status: ('A' for Active; 'I' for Inactive)
REMARK    1  A    between atoms: N_10  and  C_11 
REMARK    2  A    between atoms: C_11  and  C_12 
ROOT
HETATM    1  C   UNL     1      -0.664  -1.252  -2.560  1.00  0.00     0.173 C 
ENDROOT
BRANCH   1   2
HETATM    2  N   UNL     1      -1.545  -0.701  -1.566  1.00  0.00    -0.262 N 
HETATM    3  C   UNL     1      -1.795   0.380  -0.864  1.00  0.00     0.206 A 
HETATM    4  O   UNL     1      -0.959   1.422  -1.095  1.00  0.00    -0.170 OA
HETATM    5  C   UNL     1      -2.740   0.578   0.023  1.00  0.00     0.030 A 
HETATM    6  C   UNL     1      -3.017   1.772   0.800  1.00  0.00     0.017 A 
HETATM    7  C   UNL     1      -3.673  -0.488   0.326  1.00  0.00    -0.010 A 
HETATM    8  C   UNL     1      -4.040   1.812   1.681  1.00  0.00     0.001 A 
HETATM    9  C   UNL     1      -4.880   0.761   1.911  1.00  0.00     0.001 A 
HETATM   10  C   UNL     1      -4.657  -0.390   1.200  1.00  0.00     0.013 A 
HETATM   11 SE   UNL     1      -3.037  -1.821  -0.817  1.00  0.00     0.000 Se
ENDBRANCH   1   2
BRANCH   1  12
HETATM   12  C   UNL     1       0.536  -1.930  -1.970  1.00  0.00     0.173 C 
HETATM   13  N   UNL     1       1.395  -1.274  -1.214  1.00  0.00    -0.262 N 
HETATM   14 SE   UNL     1       1.035  -1.236   0.846  1.00  0.00     0.000 Se
HETATM   15  C   UNL     1       2.499  -0.556  -1.179  1.00  0.00     0.206 A 
HETATM   16  C   UNL     1       2.656  -0.148   1.137  1.00  0.00    -0.010 A 
HETATM   17  C   UNL     1       3.175   0.338   2.278  1.00  0.00     0.013 A 
HETATM   18  C   UNL     1       3.129  -0.013  -0.155  1.00  0.00     0.030 A 
HETATM   19  C   UNL     1       4.361   1.100   2.237  1.00  0.00     0.001 A 
HETATM   20  C   UNL     1       4.868   1.262   0.971  1.00  0.00     0.001 A 
HETATM   21  C   UNL     1       4.342   0.771  -0.166  1.00  0.00     0.017 A 
HETATM   22  O   UNL     1       3.011  -0.389  -2.429  1.00  0.00    -0.170 OA
ENDBRANCH   1  12
TORSDOF 2
