REMARK  8 active torsions:
REMARK  status: ('A' for Active; 'I' for Inactive)
REMARK       I    between atoms: N_8  and  C_21 
REMARK       I    between atoms: N_9  and  C_20 
REMARK    1  A    between atoms: N_9  and  C_24 
REMARK    2  A    between atoms: N_10  and  C_22 
REMARK       I    between atoms: N_10  and  C_30 
REMARK    3  A    between atoms: C_16  and  C_20 
REMARK    4  A    between atoms: C_21  and  C_22 
REMARK    5  A    between atoms: C_22  and  C_23 
REMARK    6  A    between atoms: C_24  and  C_28 
REMARK    7  A    between atoms: C_28  and  C_29 
REMARK    8  A    between atoms: C_30  and  C_34 
ROOT
HETATM    1  N   UNL     1       5.167  -3.120   1.861  1.00  0.00    -0.195 NA
HETATM    2  C   UNL     1       3.752  -1.285   0.615  1.00  0.00     0.192 C 
HETATM    3  C   UNL     1       4.543  -2.310   1.312  1.00  0.00     0.084 C 
ENDROOT
BRANCH   2   4
HETATM    4  N   UNL     1       2.346  -1.592   0.748  1.00  0.00    -0.342 N 
HETATM    5  C   UNL     1       1.528  -1.867  -0.334  1.00  0.00     0.242 C 
HETATM    6  O   UNL     1       1.875  -1.886  -1.512  1.00  0.00    -0.271 OA
HETATM    7  H   UNL     1       1.958  -1.617   1.687  1.00  0.00     0.163 HD
BRANCH   5   8
HETATM    8  C   UNL     1       0.113  -2.129   0.078  1.00  0.00     0.184 C 
HETATM    9  N   UNL     1      -0.689  -1.087  -0.568  1.00  0.00    -0.336 N 
HETATM   10  C   UNL     1      -1.534  -1.617  -1.642  1.00  0.00     0.132 C 
HETATM   11  C   UNL     1      -0.718   0.218  -0.094  1.00  0.00     0.244 C 
HETATM   12  C   UNL     1      -1.403  -3.103  -1.544  1.00  0.00     0.019 A 
HETATM   13  C   UNL     1      -0.401  -3.422  -0.481  1.00  0.00     0.032 A 
HETATM   14  C   UNL     1      -1.833  -3.908  -0.329  1.00  0.00    -0.036 A 
HETATM   15  C   UNL     1      -2.082  -5.381  -0.542  1.00  0.00     0.016 C 
HETATM   16  C   UNL     1      -2.738  -3.301   0.712  1.00  0.00     0.016 C 
HETATM   17  O   UNL     1       0.004   0.641   0.811  1.00  0.00    -0.271 OA
BRANCH  11  18
HETATM   18  C   UNL     1      -1.713   1.134  -0.762  1.00  0.00     0.184 C 
BRANCH  18  19
HETATM   19  N   UNL     1      -2.672   1.425   0.269  1.00  0.00    -0.340 N 
HETATM   20  C   UNL     1      -3.990   0.993   0.227  1.00  0.00     0.326 C 
HETATM   21  O   UNL     1      -4.496   0.324  -0.669  1.00  0.00    -0.263 OA
HETATM   22  H   UNL     1      -2.355   1.929   1.093  1.00  0.00     0.163 HD
BRANCH  20  23
HETATM   23  C   UNL     1      -4.772   1.437   1.428  1.00  0.00     0.472 C 
HETATM   24  F   UNL     1      -5.265   0.385   2.131  1.00  0.00    -0.162 F 
HETATM   25  F   UNL     1      -5.831   2.213   1.085  1.00  0.00    -0.162 F 
HETATM   26  F   UNL     1      -4.016   2.164   2.289  1.00  0.00    -0.162 F 
ENDBRANCH  20  23
ENDBRANCH  18  19
BRANCH  18  27
HETATM   27  C   UNL     1      -1.066   2.388  -1.395  1.00  0.00    -0.022 C 
HETATM   28  C   UNL     1      -0.299   3.242  -0.367  1.00  0.00     0.017 C 
HETATM   29  C   UNL     1      -2.151   3.264  -2.053  1.00  0.00     0.017 C 
HETATM   30  C   UNL     1      -0.079   1.948  -2.497  1.00  0.00     0.017 C 
ENDBRANCH  18  27
ENDBRANCH  11  18
ENDBRANCH   5   8
ENDBRANCH   2   4
BRANCH   2  31
HETATM   31  C   UNL     1       4.075   0.111   1.160  1.00  0.00     0.054 C 
BRANCH  31  32
HETATM   32  C   UNL     1       3.642   1.220   0.222  1.00  0.00     0.082 C 
HETATM   33  C   UNL     1       4.428   1.244  -1.092  1.00  0.00     0.034 C 
HETATM   34  C   UNL     1       4.354   2.695  -1.523  1.00  0.00     0.123 C 
HETATM   35  N   UNL     1       4.283   3.412  -0.280  1.00  0.00    -0.361 N 
HETATM   36  C   UNL     1       3.896   2.605   0.786  1.00  0.00     0.222 C 
HETATM   37  H   UNL     1       4.473   4.404  -0.188  1.00  0.00     0.162 HD
HETATM   38  O   UNL     1       3.745   2.946   1.949  1.00  0.00    -0.273 OA
ENDBRANCH  31  32
ENDBRANCH   2  31
TORSDOF 8
