REMARK  12 active torsions:
REMARK  status: ('A' for Active; 'I' for Inactive)
REMARK    1  A    between atoms: N_1  and  C_2 
REMARK    2  A    between atoms: N_10  and  C_11 
REMARK    3  A    between atoms: C_13  and  C_14 
REMARK    4  A    between atoms: C_14  and  SE_15 
REMARK    5  A    between atoms: SE_15  and  C_16 
REMARK    6  A    between atoms: C_16  and  C_17 
REMARK    7  A    between atoms: C_17  and  CA_18 
REMARK    8  A    between atoms: CA_18  and  N_19 
REMARK    9  A    between atoms: CA_18  and  C_20 
REMARK   10  A    between atoms: C_20  and  OXT_22 
REMARK   11  A    between atoms: C_23  and  O_24 
REMARK   12  A    between atoms: C_25  and  O_26 
ROOT
HETATM    1  C   UNL     1      -0.978   0.880  -0.737  1.00  0.00     0.262 C 
HETATM    2  O   UNL     1      -0.215  -0.025   0.165  1.00  0.00    -0.356 OA
HETATM    3  C   UNL     1       0.978  -0.352  -0.666  1.00  0.00     0.155 C 
HETATM    4  C   UNL     1       0.366  -0.073  -2.243  1.00  0.00     0.180 C 
HETATM    5  C   UNL     1      -1.252  -0.396  -1.868  1.00  0.00     0.198 C 
ENDROOT
BRANCH   1   6
HETATM    6  N   UNL     1      -2.339   0.745   0.035  1.00  0.00    -0.294 N 
HETATM    7  C   UNL     1      -3.448   0.238  -0.340  1.00  0.00     0.167 A 
HETATM    8  N   UNL     1      -3.822  -0.327  -1.459  1.00  0.00    -0.222 NA
HETATM    9  C   UNL     1      -4.327   0.365   0.695  1.00  0.00     0.149 A 
HETATM   10  C   UNL     1      -5.078  -0.788  -1.601  1.00  0.00     0.237 A 
HETATM   11  N   UNL     1      -5.962  -0.672  -0.592  1.00  0.00    -0.222 NA
HETATM   12  C   UNL     1      -5.613  -0.098   0.572  1.00  0.00     0.155 A 
HETATM   13  N   UNL     1      -3.693   0.977   1.720  1.00  0.00    -0.236 NA
HETATM   14  C   UNL     1      -2.423   1.214   1.286  1.00  0.00     0.214 A 
BRANCH  12  15
HETATM   15  N   UNL     1      -6.579   0.012   1.631  1.00  0.00    -0.382 N 
HETATM   16  H   UNL     1      -7.492  -0.334   1.502  1.00  0.00     0.157 HD
HETATM   17  H   UNL     1      -6.327   0.432   2.485  1.00  0.00     0.157 HD
ENDBRANCH  12  15
ENDBRANCH   1   6
BRANCH   5  18
HETATM   18  O   UNL     1      -0.996  -1.608  -1.045  1.00  0.00    -0.388 OA
HETATM   19  H   UNL     1      -0.216  -1.462  -0.487  1.00  0.00     0.210 HD
ENDBRANCH   5  18
BRANCH   3  20
HETATM   20  C   UNL     1       1.558   1.213  -0.530  1.00  0.00     0.037 C 
BRANCH  20  21
HETATM   21 SE   UNL     1       3.207   1.271  -1.519  1.00  0.00     0.000 Se
BRANCH  21  22
HETATM   22  C   UNL     1       4.462   0.184  -0.501  1.00  0.00     0.003 C 
BRANCH  22  23
HETATM   23  C   UNL     1       4.223   0.327   0.994  1.00  0.00     0.046 C 
BRANCH  23  24
HETATM   24  CA  UNL     1       5.196  -0.515   1.755  1.00  0.00     0.314 C 
BRANCH  24  25
HETATM   25  N   UNL     1       5.010  -0.414   3.178  1.00  0.00     0.093 N 
HETATM   26  H1  UNL     1       5.186   0.545   3.477  1.00  0.00     0.314 HD
HETATM   27  H2  UNL     1       5.660  -1.042   3.651  1.00  0.00     0.314 HD
ENDBRANCH  24  25
BRANCH  24  28
HETATM   28  C   UNL     1       6.609  -0.141   1.430  1.00  0.00     0.173 C 
HETATM   29  O   UNL     1       7.409   0.187   2.328  1.00  0.00    -0.648 OA
BRANCH  28  30
HETATM   30  OXT UNL     1       7.059  -0.155   0.106  1.00  0.00    -0.775 OA
HETATM   31  HXT UNL     1       6.475  -0.398  -0.585  1.00  0.00     0.167 HD
ENDBRANCH  28  30
ENDBRANCH  24  28
ENDBRANCH  23  24
ENDBRANCH  22  23
ENDBRANCH  21  22
ENDBRANCH  20  21
ENDBRANCH   3  20
BRANCH   4  32
HETATM   32  O   UNL     1       0.648  -1.443  -2.794  1.00  0.00    -0.390 OA
HETATM   33  H   UNL     1       0.321  -2.115  -2.175  1.00  0.00     0.210 HD
ENDBRANCH   4  32
TORSDOF 12
