REMARK  8 active torsions:
REMARK  status: ('A' for Active; 'I' for Inactive)
REMARK    1  A    between atoms: N_1  and  C_2 
REMARK    2  A    between atoms: C_2  and  C_3 
REMARK    3  A    between atoms: C_2  and  C_9 
REMARK    4  A    between atoms: C_3  and  O_4 
REMARK    5  A    between atoms: O_4  and  P_5 
REMARK    6  A    between atoms: P_5  and  O_7 
REMARK    7  A    between atoms: P_5  and  O_8 
REMARK    8  A    between atoms: C_9  and  O_11 
ROOT
HETATM    1  C   UNK     1       0.149   0.372   1.231  1.00  0.00     0.338 C 
ENDROOT
BRANCH   1   2
HETATM    2  N   UNK     1       0.107   0.256   2.688  1.00  0.00     0.095 N 
HETATM    3  H   UNK     1      -0.664  -0.355   2.959  1.00  0.00     0.314 HD
HETATM    4  H   UNK     1      -0.032   1.179   3.099  1.00  0.00     0.314 HD
ENDBRANCH   1   2
BRANCH   1   5
HETATM    5  C   UNK     1       0.438  -0.995   0.642  1.00  0.00     0.227 C 
BRANCH   5   6
HETATM    6  O   UNK     1      -0.718  -1.513  -0.005  1.00  0.00    -0.294 OA
BRANCH   6   7
HETATM    7  P   UNK     1      -1.058  -0.778  -1.403  1.00  0.00     0.390 P 
HETATM    8  O   UNK     1      -0.820   0.700  -1.316  1.00  0.00    -0.632 OA
BRANCH   7   9
HETATM    9  O   UNK     1      -0.146  -1.572  -2.471  1.00  0.00    -0.307 OA
HETATM   10  H   UNK     1       0.785  -1.338  -2.337  1.00  0.00     0.222 HD
ENDBRANCH   7   9
BRANCH   7  11
HETATM   11  O   UNK     1      -2.565  -1.250  -1.726  1.00  0.00    -0.307 OA
HETATM   12  H   UNK     1      -3.179  -0.810  -1.118  1.00  0.00     0.222 HD
ENDBRANCH   7  11
ENDBRANCH   6   7
ENDBRANCH   5   6
ENDBRANCH   1   5
BRANCH   1  13
HETATM   13  C   UNK     1       1.292   1.277   0.874  1.00  0.00     0.176 C 
HETATM   14  O   UNK     1       2.483   0.983   0.918  1.00  0.00    -0.648 OA
BRANCH  13  15
HETATM   15  O   UNK     1       0.840   2.520   0.568  1.00  0.00    -0.775 OA
HETATM   16  H   UNK     1      -0.081   2.692   0.548  1.00  0.00     0.167 HD
ENDBRANCH  13  15
ENDBRANCH   1  13
TORSDOF 8
