REMARK  2 active torsions:
REMARK  status: ('A' for Active; 'I' for Inactive)
REMARK    1  A    between atoms: C_2  and  N_3 
REMARK    2  A    between atoms: C_2  and  S_4 
ROOT
HETATM    1  N   UNL     1      -0.552   1.215   0.461  1.00  0.00    -0.279 NA
HETATM    2  C   UNL     1      -0.132   0.044   0.107  1.00  0.00     0.149 C 
HETATM    3  H   UNL     1      -1.518   1.401   0.498  1.00  0.00     0.189 HD
ENDROOT
BRANCH   2   4
HETATM    4  N   UNL     1      -0.917  -1.028  -0.241  1.00  0.00    -0.379 N 
HETATM    5  H   UNL     1      -1.898  -0.942  -0.235  1.00  0.00     0.158 HD
HETATM    6  H   UNL     1      -0.499  -1.881  -0.497  1.00  0.00     0.158 HD
ENDBRANCH   2   4
BRANCH   2   7
HETATM    7  S   UNL     1       1.601  -0.231   0.058  1.00  0.00    -0.106 SA
HETATM    8  H   UNL     1       2.251   0.906   0.423  1.00  0.00     0.110 HD
ENDBRANCH   2   7
TORSDOF 2
