REMARK  7 active torsions:
REMARK  status: ('A' for Active; 'I' for Inactive)
REMARK    1  A    between atoms: S_2  and  C_13 
REMARK    2  A    between atoms: S_2  and  C_22 
REMARK    3  A    between atoms: S_3  and  C_23 
REMARK    4  A    between atoms: S_3  and  C_30 
REMARK    5  A    between atoms: C_15  and  C_20 
REMARK    6  A    between atoms: C_20  and  C_23 
REMARK    7  A    between atoms: C_30  and  C_34 
ROOT
HETATM    1  F   UNL     1       4.713  -1.563   1.989  1.00  0.00    -0.205 F 
HETATM    2  F   UNL     1       2.481  -4.332  -2.152  1.00  0.00    -0.203 F 
HETATM    3  O   UNL     1       0.026  -0.109   1.877  1.00  0.00    -0.385 OA
HETATM    4  O   UNL     1       1.589  -1.872  -1.698  1.00  0.00    -0.347 OA
HETATM    5  C   UNL     1       2.603  -0.204   0.524  1.00  0.00     0.111 C 
HETATM    6  C   UNL     1       1.275   0.074  -0.233  1.00  0.00     0.068 C 
HETATM    7  C   UNL     1       0.055  -0.539   0.512  1.00  0.00     0.130 C 
HETATM    8  C   UNL     1       2.414   0.123   2.022  1.00  0.00     0.058 C 
HETATM    9  C   UNL     1       3.100  -1.609   0.220  1.00  0.00     0.041 A 
HETATM   10  C   UNL     1       1.392  -0.459  -1.664  1.00  0.00     0.185 C 
HETATM   11  C   UNL     1       1.175  -0.538   2.599  1.00  0.00     0.170 C 
HETATM   12  C   UNL     1       2.572  -2.338  -0.862  1.00  0.00     0.118 A 
HETATM   13  C   UNL     1       4.107  -2.219   0.990  1.00  0.00     0.127 A 
HETATM   14  C   UNL     1       3.007  -3.641  -1.131  1.00  0.00     0.150 A 
HETATM   15  C   UNL     1       4.549  -3.514   0.711  1.00  0.00     0.046 A 
HETATM   16  C   UNL     1       3.995  -4.227  -0.346  1.00  0.00     0.048 A 
ENDROOT
BRANCH   7  17
HETATM   17  C   UNL     1      -1.279  -0.114  -0.097  1.00  0.00     0.047 C 
BRANCH  17  18
HETATM   18  C   UNL     1      -2.446  -0.694   0.679  1.00  0.00     0.143 C 
BRANCH  18  19
HETATM   19  S   UNL     1      -3.986  -0.222  -0.042  1.00  0.00     0.149 S 
HETATM   20  O   UNL     1      -4.118   1.221   0.070  1.00  0.00    -0.228 OA
HETATM   21  O   UNL     1      -4.104  -0.877  -1.333  1.00  0.00    -0.228 OA
BRANCH  19  22
HETATM   22  C   UNL     1      -5.190  -0.955   1.043  1.00  0.00     0.199 C 
BRANCH  22  23
HETATM   23  C   UNL     1      -6.549  -0.611   0.515  1.00  0.00     0.048 A 
HETATM   24  N   UNL     1      -6.951  -1.267  -0.596  1.00  0.00    -0.265 NA
HETATM   25  C   UNL     1      -8.179  -0.953  -1.067  1.00  0.00     0.117 A 
HETATM   26  C   UNL     1      -9.018  -0.019  -0.482  1.00  0.00     0.019 A 
HETATM   27  C   UNL     1      -8.569   0.635   0.659  1.00  0.00     0.003 A 
HETATM   28  C   UNL     1      -7.312   0.339   1.174  1.00  0.00     0.028 A 
ENDBRANCH  22  23
ENDBRANCH  19  22
ENDBRANCH  18  19
ENDBRANCH  17  18
ENDBRANCH   7  17
BRANCH   5  29
HETATM   29  S   UNL     1       3.910   0.873  -0.099  1.00  0.00     0.189 S 
HETATM   30  O   UNL     1       4.260   0.371  -1.404  1.00  0.00    -0.221 OA
HETATM   31  O   UNL     1       4.886   1.012   0.951  1.00  0.00    -0.221 OA
BRANCH  29  32
HETATM   32  C   UNL     1       3.088   2.417  -0.283  1.00  0.00     0.060 A 
HETATM   33  C   UNL     1       2.464   2.736  -1.489  1.00  0.00     0.025 A 
HETATM   34  C   UNL     1       1.812   3.960  -1.635  1.00  0.00     0.025 A 
HETATM   35  C   UNL     1       1.784   4.866  -0.575  1.00  0.00     0.034 A 
HETATM   36 CL   UNL     1       0.979   6.377  -0.755  1.00  0.00    -0.084 Cl
HETATM   37  C   UNL     1       2.408   4.548   0.631  1.00  0.00     0.025 A 
HETATM   38  C   UNL     1       3.059   3.323   0.777  1.00  0.00     0.025 A 
ENDBRANCH  29  32
ENDBRANCH   5  29
TORSDOF 7
