REMARK  8 active torsions:
REMARK  status: ('A' for Active; 'I' for Inactive)
REMARK    1  A    between atoms: S_2  and  C_14 
REMARK    2  A    between atoms: S_2  and  C_24 
REMARK    3  A    between atoms: S_3  and  C_23 
REMARK    4  A    between atoms: S_3  and  C_31 
REMARK    5  A    between atoms: N_12  and  C_34 
REMARK    6  A    between atoms: C_16  and  C_21 
REMARK    7  A    between atoms: C_21  and  C_23 
REMARK    8  A    between atoms: C_31  and  C_34 
ROOT
HETATM    1  F   UNL     1       4.241  -2.080   2.267  1.00  0.00    -0.205 F 
HETATM    2  F   UNL     1       2.279  -4.369  -2.283  1.00  0.00    -0.203 F 
HETATM    3  O   UNL     1      -0.138   0.028   1.579  1.00  0.00    -0.385 OA
HETATM    4  O   UNL     1       1.674  -1.823  -1.831  1.00  0.00    -0.347 OA
HETATM    5  C   UNL     1       2.571  -0.388   0.595  1.00  0.00     0.111 C 
HETATM    6  C   UNL     1       1.417   0.100  -0.324  1.00  0.00     0.068 C 
HETATM    7  C   UNL     1       0.030  -0.357   0.211  1.00  0.00     0.130 C 
HETATM    8  C   UNL     1       2.212  -0.086   2.067  1.00  0.00     0.058 C 
HETATM    9  C   UNL     1       2.911  -1.839   0.290  1.00  0.00     0.041 A 
HETATM   10  C   UNL     1       1.668  -0.398  -1.750  1.00  0.00     0.185 C 
HETATM   11  C   UNL     1       0.824  -0.583   2.431  1.00  0.00     0.170 C 
HETATM   12  C   UNL     1       2.452  -2.450  -0.891  1.00  0.00     0.118 A 
HETATM   13  C   UNL     1       3.703  -2.610   1.161  1.00  0.00     0.127 A 
HETATM   14  C   UNL     1       2.740  -3.793  -1.164  1.00  0.00     0.150 A 
HETATM   15  C   UNL     1       4.001  -3.946   0.879  1.00  0.00     0.046 A 
HETATM   16  C   UNL     1       3.515  -4.538  -0.280  1.00  0.00     0.048 A 
ENDROOT
BRANCH   7  17
HETATM   17  C   UNL     1      -1.131   0.273  -0.555  1.00  0.00     0.047 C 
BRANCH  17  18
HETATM   18  C   UNL     1      -2.466  -0.161   0.020  1.00  0.00     0.143 C 
BRANCH  18  19
HETATM   19  S   UNL     1      -3.806   0.548  -0.883  1.00  0.00     0.146 S 
HETATM   20  O   UNL     1      -3.781   1.987  -0.681  1.00  0.00    -0.228 OA
HETATM   21  O   UNL     1      -3.797  -0.010  -2.225  1.00  0.00    -0.228 OA
BRANCH  19  22
HETATM   22  C   UNL     1      -5.244  -0.085  -0.050  1.00  0.00     0.162 C 
BRANCH  22  23
HETATM   23  C   UNL     1      -6.548   0.405  -0.670  1.00  0.00     0.165 C 
BRANCH  23  24
HETATM   24  N   UNL     1      -7.779  -0.082   0.054  1.00  0.00    -0.280 N 
HETATM   25  N   UNL     1      -8.135   0.482   1.220  1.00  0.00    -0.185 NA
HETATM   26  C   UNL     1      -9.240  -0.187   1.556  1.00  0.00     0.140 A 
HETATM   27  C   UNL     1      -9.588  -1.172   0.612  1.00  0.00     0.040 A 
HETATM   28  C   UNL     1      -8.617  -1.078  -0.355  1.00  0.00     0.113 A 
ENDBRANCH  23  24
ENDBRANCH  22  23
ENDBRANCH  19  22
ENDBRANCH  18  19
ENDBRANCH  17  18
ENDBRANCH   7  17
BRANCH   5  29
HETATM   29  S   UNL     1       4.089   0.512   0.218  1.00  0.00     0.189 S 
HETATM   30  O   UNL     1       4.553   0.007  -1.049  1.00  0.00    -0.221 OA
HETATM   31  O   UNL     1       4.912   0.476   1.400  1.00  0.00    -0.221 OA
BRANCH  29  32
HETATM   32  C   UNL     1       3.520   2.162   0.002  1.00  0.00     0.060 A 
HETATM   33  C   UNL     1       3.127   2.605  -1.261  1.00  0.00     0.025 A 
HETATM   34  C   UNL     1       2.676   3.913  -1.433  1.00  0.00     0.025 A 
HETATM   35  C   UNL     1       2.618   4.779  -0.341  1.00  0.00     0.034 A 
HETATM   36 CL   UNL     1       2.061   6.394  -0.552  1.00  0.00    -0.084 Cl
HETATM   37  C   UNL     1       3.010   4.337   0.923  1.00  0.00     0.025 A 
HETATM   38  C   UNL     1       3.461   3.028   1.094  1.00  0.00     0.025 A 
ENDBRANCH  29  32
ENDBRANCH   5  29
TORSDOF 8
