REMARK  7 active torsions:
REMARK  status: ('A' for Active; 'I' for Inactive)
REMARK    1  A    between atoms: S_2  and  C_14 
REMARK    2  A    between atoms: S_2  and  C_23 
REMARK    3  A    between atoms: S_3  and  C_24 
REMARK    4  A    between atoms: S_3  and  C_31 
REMARK    5  A    between atoms: O_12  and  C_38 
REMARK    6  A    between atoms: C_16  and  C_21 
REMARK    7  A    between atoms: C_21  and  C_24 
ROOT
HETATM    1  F   UNL     1       4.898   1.475   1.708  1.00  0.00    -0.205 F 
HETATM    2  F   UNL     1       5.430  -2.330  -2.169  1.00  0.00    -0.203 F 
HETATM    3  O   UNL     1       0.933  -1.378   2.185  1.00  0.00    -0.385 OA
HETATM    4  O   UNL     1       2.973  -1.516  -1.578  1.00  0.00    -0.347 OA
HETATM    5  C   UNL     1       2.432   0.489   0.528  1.00  0.00     0.111 C 
HETATM    6  C   UNL     1       1.354  -0.464  -0.059  1.00  0.00     0.068 C 
HETATM    7  C   UNL     1       1.178  -1.734   0.820  1.00  0.00     0.130 C 
HETATM    8  C   UNL     1       2.183   0.669   2.042  1.00  0.00     0.058 C 
HETATM    9  C   UNL     1       3.825   0.011   0.147  1.00  0.00     0.041 A 
HETATM   10  C   UNL     1       1.730  -0.818  -1.500  1.00  0.00     0.185 C 
HETATM   11  C   UNL     1       2.021  -0.661   2.756  1.00  0.00     0.170 C 
HETATM   12  C   UNL     1       4.001  -0.942  -0.873  1.00  0.00     0.118 A 
HETATM   13  C   UNL     1       4.976   0.511   0.781  1.00  0.00     0.127 A 
HETATM   14  C   UNL     1       5.278  -1.406  -1.210  1.00  0.00     0.150 A 
HETATM   15  C   UNL     1       6.250   0.057   0.433  1.00  0.00     0.046 A 
HETATM   16  C   UNL     1       6.401  -0.905  -0.558  1.00  0.00     0.048 A 
ENDROOT
BRANCH   7  17
HETATM   17  C   UNL     1      -0.008  -2.591   0.383  1.00  0.00     0.047 C 
BRANCH  17  18
HETATM   18  C   UNL     1      -1.302  -1.799   0.426  1.00  0.00     0.148 C 
BRANCH  18  19
HETATM   19  S   UNL     1      -2.674  -2.799  -0.055  1.00  0.00     0.177 S 
HETATM   20  O   UNL     1      -2.839  -3.839   0.947  1.00  0.00    -0.223 OA
HETATM   21  O   UNL     1      -2.528  -3.150  -1.457  1.00  0.00    -0.223 OA
BRANCH  19  22
HETATM   22  C   UNL     1      -4.061  -1.708   0.061  1.00  0.00     0.076 A 
HETATM   23  C   UNL     1      -4.784  -1.591   1.242  1.00  0.00     0.029 A 
HETATM   24  C   UNL     1      -5.870  -0.725   1.303  1.00  0.00     0.059 A 
HETATM   25  C   UNL     1      -6.190  -0.004   0.164  1.00  0.00     0.163 A 
HETATM   26  N   UNL     1      -5.511  -0.091  -1.002  1.00  0.00    -0.236 NA
HETATM   27  C   UNL     1      -4.461  -0.943  -1.023  1.00  0.00     0.142 A 
BRANCH  25  28
HETATM   28  O   UNL     1      -7.256   0.856   0.199  1.00  0.00    -0.339 OA
HETATM   29  C   UNL     1      -7.541   1.571  -0.998  1.00  0.00     0.211 C 
ENDBRANCH  25  28
ENDBRANCH  19  22
ENDBRANCH  18  19
ENDBRANCH  17  18
ENDBRANCH   7  17
BRANCH   5  30
HETATM   30  S   UNL     1       2.300   2.120  -0.234  1.00  0.00     0.189 S 
HETATM   31  O   UNL     1       2.801   1.980  -1.578  1.00  0.00    -0.221 OA
HETATM   32  O   UNL     1       2.860   3.071   0.692  1.00  0.00    -0.221 OA
BRANCH  30  33
HETATM   33  C   UNL     1       0.561   2.381  -0.296  1.00  0.00     0.060 A 
HETATM   34  C   UNL     1      -0.090   2.998   0.772  1.00  0.00     0.025 A 
HETATM   35  C   UNL     1      -1.468   3.206   0.723  1.00  0.00     0.025 A 
HETATM   36  C   UNL     1      -2.196   2.796  -0.394  1.00  0.00     0.034 A 
HETATM   37 CL   UNL     1      -3.896   3.051  -0.455  1.00  0.00    -0.084 Cl
HETATM   38  C   UNL     1      -1.544   2.179  -1.463  1.00  0.00     0.025 A 
HETATM   39  C   UNL     1      -0.166   1.972  -1.413  1.00  0.00     0.025 A 
ENDBRANCH  30  33
ENDBRANCH   5  30
TORSDOF 7
