REMARK  7 active torsions:
REMARK  status: ('A' for Active; 'I' for Inactive)
REMARK    1  A    between atoms: S_2  and  C_15 
REMARK    2  A    between atoms: S_2  and  C_24 
REMARK    3  A    between atoms: S_3  and  C_25 
REMARK    4  A    between atoms: S_3  and  C_32 
REMARK    5  A    between atoms: C_17  and  C_22 
REMARK    6  A    between atoms: C_22  and  C_25 
REMARK    7  A    between atoms: C_32  and  C_36 
ROOT
HETATM    1  F   UNL     1       4.456  -1.599   1.984  1.00  0.00    -0.205 F 
HETATM    2  F   UNL     1       2.248  -4.308  -2.209  1.00  0.00    -0.203 F 
HETATM    3  O   UNL     1      -0.228  -0.137   1.862  1.00  0.00    -0.385 OA
HETATM    4  O   UNL     1       1.357  -1.853  -1.727  1.00  0.00    -0.347 OA
HETATM    5  C   UNL     1       2.357  -0.217   0.524  1.00  0.00     0.111 C 
HETATM    6  C   UNL     1       1.035   0.073  -0.237  1.00  0.00     0.068 C 
HETATM    7  C   UNL     1      -0.191  -0.548   0.491  1.00  0.00     0.130 C 
HETATM    8  C   UNL     1       2.159   0.090   2.025  1.00  0.00     0.058 C 
HETATM    9  C   UNL     1       2.855  -1.619   0.204  1.00  0.00     0.041 A 
HETATM   10  C   UNL     1       1.161  -0.441  -1.675  1.00  0.00     0.185 C 
HETATM   11  C   UNL     1       0.915  -0.578   2.585  1.00  0.00     0.170 C 
HETATM   12  C   UNL     1       2.333  -2.332  -0.891  1.00  0.00     0.118 A 
HETATM   13  C   UNL     1       3.856  -2.240   0.973  1.00  0.00     0.127 A 
HETATM   14  C   UNL     1       2.768  -3.632  -1.174  1.00  0.00     0.150 A 
HETATM   15  C   UNL     1       4.298  -3.532   0.679  1.00  0.00     0.046 A 
HETATM   16  C   UNL     1       3.750  -4.230  -0.391  1.00  0.00     0.048 A 
ENDROOT
BRANCH   7  17
HETATM   17  C   UNL     1      -1.520  -0.113  -0.121  1.00  0.00     0.047 C 
BRANCH  17  18
HETATM   18  C   UNL     1      -2.693  -0.702   0.639  1.00  0.00     0.143 C 
BRANCH  18  19
HETATM   19  S   UNL     1      -4.228  -0.218  -0.085  1.00  0.00     0.151 S 
HETATM   20  O   UNL     1      -4.358   1.224   0.045  1.00  0.00    -0.227 OA
HETATM   21  O   UNL     1      -4.338  -0.855  -1.387  1.00  0.00    -0.227 OA
BRANCH  19  22
HETATM   22  C   UNL     1      -5.440  -0.964   0.981  1.00  0.00     0.223 C 
BRANCH  22  23
HETATM   23  C   UNL     1      -6.794  -0.611   0.449  1.00  0.00     0.169 A 
HETATM   24  N   UNL     1      -7.223   0.681   0.350  1.00  0.00    -0.216 NA
HETATM   25  C   UNL     1      -8.421   0.517  -0.152  1.00  0.00     0.288 A 
HETATM   26  O   UNL     1      -8.761  -0.780  -0.369  1.00  0.00    -0.205 OA
HETATM   27  N   UNL     1      -7.659  -1.543   0.038  1.00  0.00    -0.111 NA
ENDBRANCH  22  23
ENDBRANCH  19  22
ENDBRANCH  18  19
ENDBRANCH  17  18
ENDBRANCH   7  17
BRANCH   5  28
HETATM   28  S   UNL     1       3.670   0.866  -0.075  1.00  0.00     0.189 S 
HETATM   29  O   UNL     1       4.028   0.381  -1.384  1.00  0.00    -0.221 OA
HETATM   30  O   UNL     1       4.640   0.989   0.983  1.00  0.00    -0.221 OA
BRANCH  28  31
HETATM   31  C   UNL     1       2.851   2.414  -0.243  1.00  0.00     0.060 A 
HETATM   32  C   UNL     1       2.236   2.750  -1.449  1.00  0.00     0.025 A 
HETATM   33  C   UNL     1       1.587   3.977  -1.583  1.00  0.00     0.025 A 
HETATM   34  C   UNL     1       1.553   4.869  -0.511  1.00  0.00     0.034 A 
HETATM   35 CL   UNL     1       0.752   6.383  -0.675  1.00  0.00    -0.084 Cl
HETATM   36  C   UNL     1       2.168   4.533   0.696  1.00  0.00     0.025 A 
HETATM   37  C   UNL     1       2.817   3.305   0.829  1.00  0.00     0.025 A 
ENDBRANCH  28  31
ENDBRANCH   5  28
TORSDOF 7
