REMARK  6 active torsions:
REMARK  status: ('A' for Active; 'I' for Inactive)
REMARK    1  A    between atoms: S_2  and  C_11 
REMARK    2  A    between atoms: S_2  and  C_22 
REMARK    3  A    between atoms: S_3  and  C_21 
REMARK    4  A    between atoms: S_3  and  C_29 
REMARK    5  A    between atoms: C_13  and  C_19 
REMARK    6  A    between atoms: C_19  and  C_21 
ROOT
HETATM    1  F   UNL     1      -3.397   2.003   1.808  1.00  0.00    -0.205 F 
HETATM    2  F   UNL     1      -0.475   4.336  -2.168  1.00  0.00    -0.203 F 
HETATM    3  O   UNL     1       0.017   1.785  -1.622  1.00  0.00    -0.347 OA
HETATM    4  C   UNL     1      -1.393   0.323   0.528  1.00  0.00     0.107 C 
HETATM    5  C   UNL     1      -0.048  -0.148  -0.101  1.00  0.00     0.043 C 
HETATM    6  C   UNL     1       1.196   0.318   0.722  1.00  0.00    -0.006 C 
HETATM    7  C   UNL     1      -1.429  -0.019   2.036  1.00  0.00     0.031 C 
HETATM    8  C   UNL     1       1.061  -0.041   2.207  1.00  0.00     0.005 C 
HETATM    9  C   UNL     1      -0.225   0.512   2.799  1.00  0.00     0.002 C 
HETATM   10  C   UNL     1       0.018   0.360  -1.548  1.00  0.00     0.182 C 
HETATM   11  C   UNL     1      -1.659   1.779   0.174  1.00  0.00     0.041 A 
HETATM   12  C   UNL     1      -0.950   2.402  -0.870  1.00  0.00     0.118 A 
HETATM   13  C   UNL     1      -2.626   2.541   0.854  1.00  0.00     0.127 A 
HETATM   14  C   UNL     1      -1.172   3.748  -1.185  1.00  0.00     0.150 A 
HETATM   15  C   UNL     1      -2.854   3.880   0.528  1.00  0.00     0.046 A 
HETATM   16  C   UNL     1      -2.124   4.485  -0.487  1.00  0.00     0.048 A 
ENDROOT
BRANCH   4  17
HETATM   17  S   UNL     1      -2.774  -0.568  -0.232  1.00  0.00     0.189 S 
HETATM   18  O   UNL     1      -2.917  -0.060  -1.571  1.00  0.00    -0.221 OA
HETATM   19  O   UNL     1      -3.850  -0.524   0.722  1.00  0.00    -0.221 OA
BRANCH  17  20
HETATM   20  C   UNL     1      -2.160  -2.212  -0.333  1.00  0.00     0.060 A 
HETATM   21  C   UNL     1      -2.368  -3.100   0.723  1.00  0.00     0.025 A 
HETATM   22  C   UNL     1      -1.881  -4.404   0.643  1.00  0.00     0.025 A 
HETATM   23  C   UNL     1      -1.185  -4.821  -0.492  1.00  0.00     0.034 A 
HETATM   24 CL   UNL     1      -0.584  -6.430  -0.590  1.00  0.00    -0.084 Cl
HETATM   25  C   UNL     1      -0.977  -3.933  -1.548  1.00  0.00     0.025 A 
HETATM   26  C   UNL     1      -1.465  -2.628  -1.468  1.00  0.00     0.025 A 
ENDBRANCH  17  20
ENDBRANCH   4  17
BRANCH   6  27
HETATM   27  C   UNL     1       2.503  -0.278   0.185  1.00  0.00     0.020 C 
BRANCH  27  28
HETATM   28  C   UNL     1       3.692   0.565   0.597  1.00  0.00     0.140 C 
BRANCH  28  29
HETATM   29  S   UNL     1       5.192  -0.107  -0.046  1.00  0.00     0.144 S 
HETATM   30  O   UNL     1       5.424  -1.392   0.591  1.00  0.00    -0.228 OA
HETATM   31  O   UNL     1       5.157   0.004  -1.495  1.00  0.00    -0.228 OA
BRANCH  29  32
HETATM   32  C   UNL     1       6.434   1.018   0.548  1.00  0.00     0.136 C 
HETATM   33  C   UNL     1       7.817   0.607   0.094  1.00  0.00     0.021 C 
ENDBRANCH  29  32
ENDBRANCH  28  29
ENDBRANCH  27  28
ENDBRANCH   6  27
TORSDOF 6
