REMARK  3 active torsions:
REMARK  status: ('A' for Active; 'I' for Inactive)
REMARK    1  A    between atoms: S_1  and  C_16 
REMARK    2  A    between atoms: S_1  and  C_25 
REMARK    3  A    between atoms: C_35  and  C_36 
ROOT
HETATM    1  P   UNL     1      -1.429   3.783   0.298  1.00  0.00     0.325 P 
HETATM    2  F   UNL     1       2.739  -2.970  -1.223  1.00  0.00    -0.205 F 
HETATM    3  F   UNL     1       5.579   0.948   1.303  1.00  0.00    -0.203 F 
HETATM    4  O   UNL     1       2.934   1.234   1.142  1.00  0.00    -0.347 OA
HETATM    5  O   UNL     1      -1.734   2.367  -0.417  1.00  0.00    -0.313 OA
HETATM    6  O   UNL     1       0.166   3.738   0.544  1.00  0.00    -0.313 OA
HETATM    7  O   UNL     1      -2.233   4.023   1.543  1.00  0.00    -0.259 OA
HETATM    8  C   UNL     1       0.707   0.710   0.232  1.00  0.00     0.051 C 
HETATM    9  C   UNL     1       0.617   1.803  -0.927  1.00  0.00     0.011 C 
HETATM   10  C   UNL     1       1.210  -0.697  -0.258  1.00  0.00     0.107 C 
HETATM   11  C   UNL     1       1.528   1.422  -2.116  1.00  0.00     0.014 C 
HETATM   12  C   UNL     1       0.738  -0.977  -1.696  1.00  0.00     0.031 C 
HETATM   13  C   UNL     1       1.243   0.045  -2.710  1.00  0.00     0.003 C 
HETATM   14  C   UNL     1       1.553   1.099   1.456  1.00  0.00     0.183 C 
HETATM   15  C   UNL     1      -0.855   1.902  -1.436  1.00  0.00     0.190 C 
HETATM   16  C   UNL     1       1.015   3.238  -0.480  1.00  0.00     0.190 C 
HETATM   17  C   UNL     1       2.716  -0.869  -0.080  1.00  0.00     0.041 A 
HETATM   18  C   UNL     1       3.475   0.101   0.594  1.00  0.00     0.118 A 
HETATM   19  C   UNL     1       3.400  -1.985  -0.598  1.00  0.00     0.127 A 
HETATM   20  C   UNL     1       4.864  -0.018   0.708  1.00  0.00     0.150 A 
HETATM   21  C   UNL     1       4.785  -2.114  -0.468  1.00  0.00     0.046 A 
HETATM   22  C   UNL     1      -1.687   5.021  -0.956  1.00  0.00     0.149 C 
HETATM   23  C   UNL     1       5.518  -1.127   0.180  1.00  0.00     0.048 A 
ENDROOT
BRANCH  10  24
HETATM   24  S   UNL     1       0.489  -1.973   0.806  1.00  0.00     0.189 S 
HETATM   25  O   UNL     1       0.834  -1.610   2.156  1.00  0.00    -0.221 OA
HETATM   26  O   UNL     1       0.849  -3.248   0.242  1.00  0.00    -0.221 OA
BRANCH  24  27
HETATM   27  C   UNL     1      -1.238  -1.741   0.572  1.00  0.00     0.060 A 
HETATM   28  C   UNL     1      -1.942  -0.868   1.402  1.00  0.00     0.024 A 
HETATM   29  C   UNL     1      -3.313  -0.686   1.218  1.00  0.00     0.017 A 
HETATM   30  C   UNL     1      -3.979  -1.375   0.205  1.00  0.00     0.048 A 
HETATM   31  C   UNL     1      -3.274  -2.248  -0.625  1.00  0.00     0.017 A 
HETATM   32  C   UNL     1      -1.904  -2.430  -0.441  1.00  0.00     0.024 A 
BRANCH  30  33
HETATM   33  C   UNL     1      -5.444  -1.180   0.009  1.00  0.00     0.417 C 
HETATM   34  F   UNL     1      -5.980  -0.297   0.901  1.00  0.00    -0.166 F 
HETATM   35  F   UNL     1      -5.772  -0.697  -1.226  1.00  0.00    -0.166 F 
HETATM   36  F   UNL     1      -6.173  -2.327   0.147  1.00  0.00    -0.166 F 
ENDBRANCH  30  33
ENDBRANCH  24  27
ENDBRANCH  10  24
TORSDOF 3
