REMARK  7 active torsions:
REMARK  status: ('A' for Active; 'I' for Inactive)
REMARK    1  A    between atoms: S_2  and  C_13 
REMARK    2  A    between atoms: S_2  and  C_22 
REMARK    3  A    between atoms: S_3  and  C_23 
REMARK    4  A    between atoms: S_3  and  C_30 
REMARK    5  A    between atoms: C_15  and  C_20 
REMARK    6  A    between atoms: C_20  and  C_23 
REMARK    7  A    between atoms: C_30  and  C_34 
ROOT
HETATM    1  F   UNL     1       4.724  -1.563   1.983  1.00  0.00    -0.205 F 
HETATM    2  F   UNL     1       2.481  -4.334  -2.152  1.00  0.00    -0.203 F 
HETATM    3  O   UNL     1       0.037  -0.109   1.882  1.00  0.00    -0.385 OA
HETATM    4  O   UNL     1       1.591  -1.873  -1.697  1.00  0.00    -0.347 OA
HETATM    5  C   UNL     1       2.610  -0.205   0.522  1.00  0.00     0.111 C 
HETATM    6  C   UNL     1       1.281   0.074  -0.232  1.00  0.00     0.068 C 
HETATM    7  C   UNL     1       0.063  -0.539   0.517  1.00  0.00     0.130 C 
HETATM    8  C   UNL     1       2.425   0.123   2.020  1.00  0.00     0.058 C 
HETATM    9  C   UNL     1       3.107  -1.610   0.217  1.00  0.00     0.041 A 
HETATM   10  C   UNL     1       1.394  -0.461  -1.662  1.00  0.00     0.185 C 
HETATM   11  C   UNL     1       1.188  -0.538   2.601  1.00  0.00     0.170 C 
HETATM   12  C   UNL     1       2.576  -2.339  -0.863  1.00  0.00     0.118 A 
HETATM   13  C   UNL     1       4.115  -2.219   0.986  1.00  0.00     0.127 A 
HETATM   14  C   UNL     1       3.010  -3.643  -1.132  1.00  0.00     0.150 A 
HETATM   15  C   UNL     1       4.556  -3.515   0.706  1.00  0.00     0.046 A 
HETATM   16  C   UNL     1       4.000  -4.229  -0.349  1.00  0.00     0.048 A 
ENDROOT
BRANCH   7  17
HETATM   17  C   UNL     1      -1.273  -0.114  -0.089  1.00  0.00     0.047 C 
BRANCH  17  18
HETATM   18  C   UNL     1      -2.438  -0.694   0.690  1.00  0.00     0.143 C 
BRANCH  18  19
HETATM   19  S   UNL     1      -3.980  -0.222  -0.027  1.00  0.00     0.148 S 
HETATM   20  O   UNL     1      -4.111   1.222   0.084  1.00  0.00    -0.228 OA
HETATM   21  O   UNL     1      -4.101  -0.877  -1.318  1.00  0.00    -0.228 OA
BRANCH  19  22
HETATM   22  C   UNL     1      -5.181  -0.954   1.061  1.00  0.00     0.180 C 
BRANCH  22  23
HETATM   23  C   UNL     1      -6.541  -0.610   0.536  1.00  0.00    -0.027 A 
HETATM   24  C   UNL     1      -7.335   0.339   1.171  1.00  0.00     0.011 A 
HETATM   25  C   UNL     1      -8.593   0.638   0.660  1.00  0.00     0.020 A 
HETATM   26  C   UNL     1      -9.008  -0.033  -0.479  1.00  0.00     0.116 A 
HETATM   27  N   UNL     1      -8.264  -0.960  -1.123  1.00  0.00    -0.273 NA
HETATM   28  C   UNL     1      -7.047  -1.225  -0.597  1.00  0.00     0.124 A 
ENDBRANCH  22  23
ENDBRANCH  19  22
ENDBRANCH  18  19
ENDBRANCH  17  18
ENDBRANCH   7  17
BRANCH   5  29
HETATM   29  S   UNL     1       3.916   0.872  -0.104  1.00  0.00     0.189 S 
HETATM   30  O   UNL     1       4.263   0.369  -1.409  1.00  0.00    -0.221 OA
HETATM   31  O   UNL     1       4.895   1.010   0.943  1.00  0.00    -0.221 OA
BRANCH  29  32
HETATM   32  C   UNL     1       3.094   2.416  -0.287  1.00  0.00     0.060 A 
HETATM   33  C   UNL     1       2.467   2.734  -1.492  1.00  0.00     0.025 A 
HETATM   34  C   UNL     1       1.815   3.959  -1.637  1.00  0.00     0.025 A 
HETATM   35  C   UNL     1       1.790   4.865  -0.577  1.00  0.00     0.034 A 
HETATM   36 CL   UNL     1       0.986   6.376  -0.756  1.00  0.00    -0.084 Cl
HETATM   37  C   UNL     1       2.417   4.547   0.628  1.00  0.00     0.025 A 
HETATM   38  C   UNL     1       3.069   3.322   0.773  1.00  0.00     0.025 A 
ENDBRANCH  29  32
ENDBRANCH   5  29
TORSDOF 7
