REMARK  12 active torsions:
REMARK  status: ('A' for Active; 'I' for Inactive)
REMARK    1  A    between atoms: O_2  and  C_7 
REMARK    2  A    between atoms: O_2  and  C_8 
REMARK    3  A    between atoms: O_3  and  C_9 
REMARK    4  A    between atoms: O_3  and  C_14 
REMARK    5  A    between atoms: O_4  and  C_10 
REMARK    6  A    between atoms: O_4  and  C_23 
REMARK    7  A    between atoms: N_5  and  C_13 
REMARK    8  A    between atoms: C_7  and  C_9 
REMARK    9  A    between atoms: C_8  and  C_10 
REMARK   10  A    between atoms: C_11  and  C_15 
REMARK   11  A    between atoms: C_12  and  C_18 
REMARK   12  A    between atoms: C_23  and  C_25 
ROOT
HETATM    1  N   UNL     1       0.547  -0.261   0.054  1.00  0.00    -0.236 NA
HETATM    2  C   UNL     1      -1.788   0.351   0.189  1.00  0.00    -0.018 A 
HETATM    3  C   UNL     1       0.849   1.052   0.162  1.00  0.00     0.164 A 
HETATM    4  C   UNL     1      -1.438   1.692   0.297  1.00  0.00     0.017 A 
HETATM    5  C   UNL     1      -0.096   2.058   0.284  1.00  0.00     0.059 A 
HETATM    6  C   UNL     1      -0.767  -0.579   0.070  1.00  0.00     0.131 A 
ENDROOT
BRANCH   2   7
HETATM    7  C   UNL     1      -3.201  -0.068   0.200  1.00  0.00     0.013 C 
HETATM    8  C   UNL     1      -4.256   0.736  -0.072  1.00  0.00     0.012 C 
BRANCH   8   9
HETATM    9  C   UNL     1      -5.649   0.318  -0.079  1.00  0.00    -0.036 A 
HETATM   10  C   UNL     1      -6.602   1.077  -0.758  1.00  0.00     0.013 A 
HETATM   11  C   UNL     1      -7.938   0.676  -0.764  1.00  0.00     0.030 A 
HETATM   12  C   UNL     1      -8.321  -0.484  -0.091  1.00  0.00     0.027 A 
HETATM   13  C   UNL     1      -7.368  -1.244   0.588  1.00  0.00     0.030 A 
HETATM   14  C   UNL     1      -6.032  -0.843   0.594  1.00  0.00     0.013 A 
BRANCH  12  15
HETATM   15  N   UNL     1      -9.671  -0.890  -0.097  1.00  0.00    -0.394 N 
HETATM   16  C   UNL     1     -10.071  -2.261  -0.017  1.00  0.00     0.146 C 
HETATM   17  H   UNL     1     -10.333  -0.233  -0.498  1.00  0.00     0.159 HD
ENDBRANCH  12  15
ENDBRANCH   8   9
ENDBRANCH   2   7
BRANCH   3  18
HETATM   18  O   UNL     1       2.178   1.387   0.146  1.00  0.00    -0.332 OA
BRANCH  18  19
HETATM   19  C   UNL     1       3.106   0.317   0.018  1.00  0.00     0.203 C 
BRANCH  19  20
HETATM   20  C   UNL     1       4.513   0.882  -0.003  1.00  0.00     0.194 C 
BRANCH  20  21
HETATM   21  O   UNL     1       5.442  -0.190  -0.111  1.00  0.00    -0.387 OA
BRANCH  21  22
HETATM   22  C   UNL     1       6.782   0.283  -0.136  1.00  0.00     0.193 C 
BRANCH  22  23
HETATM   23  C   UNL     1       7.723  -0.903  -0.227  1.00  0.00     0.193 C 
BRANCH  23  24
HETATM   24  O   UNL     1       9.064  -0.428  -0.272  1.00  0.00    -0.387 OA
BRANCH  24  25
HETATM   25  C   UNL     1       9.992  -1.500  -0.358  1.00  0.00     0.199 C 
BRANCH  25  26
HETATM   26  C   UNL     1      11.393  -0.930  -0.388  1.00  0.00     0.248 C 
HETATM   27  F   UNL     1      11.608  -0.246   0.769  1.00  0.00    -0.253 F 
ENDBRANCH  25  26
ENDBRANCH  24  25
ENDBRANCH  23  24
ENDBRANCH  22  23
ENDBRANCH  21  22
ENDBRANCH  20  21
ENDBRANCH  19  20
ENDBRANCH  18  19
ENDBRANCH   3  18
TORSDOF 12
