REMARK  2 active torsions:
REMARK  status: ('A' for Active; 'I' for Inactive)
REMARK    1  A    between atoms: S_2  and  C_11 
REMARK    2  A    between atoms: S_2  and  C_20 
ROOT
HETATM    1  F   UNL     1       1.699   2.481   1.585  1.00  0.00    -0.205 F 
HETATM    2  F   UNL     1       4.928  -0.792  -1.354  1.00  0.00    -0.203 F 
HETATM    3  O   UNL     1      -1.305  -4.033   0.525  1.00  0.00    -0.389 OA
HETATM    4  O   UNL     1       2.313  -1.318  -1.326  1.00  0.00    -0.347 OA
HETATM    5  C   UNL     1      -0.110  -2.255   0.373  1.00  0.00     0.010 C 
HETATM    6  C   UNL     1      -0.009  -1.016  -0.558  1.00  0.00     0.051 C 
HETATM    7  C   UNL     1       0.389   0.277   0.220  1.00  0.00     0.107 C 
HETATM    8  C   UNL     1       0.832  -2.193   1.581  1.00  0.00     0.014 C 
HETATM    9  C   UNL     1      -0.102   0.192   1.678  1.00  0.00     0.031 C 
HETATM   10  C   UNL     1      -0.159  -3.664  -0.283  1.00  0.00     0.179 C 
HETATM   11  C   UNL     1      -1.563  -2.631   0.792  1.00  0.00     0.179 C 
HETATM   12  C   UNL     1       0.528  -0.971   2.448  1.00  0.00     0.003 C 
HETATM   13  C   UNL     1       0.952  -1.228  -1.733  1.00  0.00     0.183 C 
HETATM   14  C   UNL     1       1.878   0.592   0.126  1.00  0.00     0.041 A 
HETATM   15  C   UNL     1       2.738  -0.218  -0.631  1.00  0.00     0.118 A 
HETATM   16  C   UNL     1       2.449   1.674   0.823  1.00  0.00     0.127 A 
HETATM   17  C   UNL     1       4.116   0.025  -0.669  1.00  0.00     0.150 A 
HETATM   18  C   UNL     1       3.822   1.929   0.771  1.00  0.00     0.046 A 
HETATM   19  C   UNL     1       4.656   1.102   0.027  1.00  0.00     0.048 A 
ENDROOT
BRANCH   7  20
HETATM   20  S   UNL     1      -0.425   1.679  -0.575  1.00  0.00     0.189 S 
HETATM   21  O   UNL     1      -0.042   1.637  -1.964  1.00  0.00    -0.221 OA
HETATM   22  O   UNL     1      -0.181   2.839   0.246  1.00  0.00    -0.221 OA
BRANCH  20  23
HETATM   23  C   UNL     1      -2.131   1.270  -0.440  1.00  0.00     0.060 A 
HETATM   24  C   UNL     1      -2.861   1.679   0.676  1.00  0.00     0.025 A 
HETATM   25  C   UNL     1      -4.213   1.354   0.782  1.00  0.00     0.025 A 
HETATM   26  C   UNL     1      -4.835   0.621  -0.228  1.00  0.00     0.034 A 
HETATM   27 CL   UNL     1      -6.504   0.220  -0.097  1.00  0.00    -0.084 Cl
HETATM   28  C   UNL     1      -4.106   0.212  -1.344  1.00  0.00     0.025 A 
HETATM   29  C   UNL     1      -2.753   0.536  -1.450  1.00  0.00     0.025 A 
ENDBRANCH  20  23
ENDBRANCH   7  20
TORSDOF 2
