REMARK  6 active torsions:
REMARK  status: ('A' for Active; 'I' for Inactive)
REMARK    1  A    between atoms: S_2  and  C_14 
REMARK    2  A    between atoms: S_2  and  C_23 
REMARK    3  A    between atoms: S_3  and  C_25 
REMARK    4  A    between atoms: S_3  and  C_33 
REMARK    5  A    between atoms: C_16  and  C_21 
REMARK    6  A    between atoms: C_21  and  C_25 
ROOT
HETATM    1  F   UNL     1       4.538   1.333   1.723  1.00  0.00    -0.205 F 
HETATM    2  F   UNL     1       4.926  -2.623  -2.018  1.00  0.00    -0.203 F 
HETATM    3  O   UNL     1       0.399  -1.262   2.195  1.00  0.00    -0.385 OA
HETATM    4  O   UNL     1       2.509  -1.645  -1.512  1.00  0.00    -0.347 OA
HETATM    5  C   UNL     1       2.043   0.457   0.516  1.00  0.00     0.111 C 
HETATM    6  C   UNL     1       0.924  -0.449  -0.066  1.00  0.00     0.068 C 
HETATM    7  C   UNL     1       0.653  -1.678   0.849  1.00  0.00     0.130 C 
HETATM    8  C   UNL     1       1.773   0.701   2.018  1.00  0.00     0.058 C 
HETATM    9  C   UNL     1       3.413  -0.116   0.184  1.00  0.00     0.041 A 
HETATM   10  C   UNL     1       1.309  -0.873  -1.486  1.00  0.00     0.185 C 
HETATM   11  C   UNL     1       1.516  -0.593   2.769  1.00  0.00     0.170 C 
HETATM   12  C   UNL     1       3.554  -1.111  -0.801  1.00  0.00     0.118 A 
HETATM   13  C   UNL     1       4.579   0.336   0.829  1.00  0.00     0.127 A 
HETATM   14  C   UNL     1       4.808  -1.660  -1.092  1.00  0.00     0.150 A 
HETATM   15  C   UNL     1       5.831  -0.204   0.526  1.00  0.00     0.046 A 
HETATM   16  C   UNL     1       5.945  -1.206  -0.430  1.00  0.00     0.048 A 
ENDROOT
BRANCH   7  17
HETATM   17  C   UNL     1      -0.573  -2.476   0.411  1.00  0.00     0.048 C 
BRANCH  17  18
HETATM   18  C   UNL     1      -1.817  -1.609   0.398  1.00  0.00     0.150 C 
BRANCH  18  19
HETATM   19  S   UNL     1      -3.236  -2.540  -0.084  1.00  0.00     0.193 S 
HETATM   20  O   UNL     1      -3.485  -3.535   0.946  1.00  0.00    -0.221 OA
HETATM   21  O   UNL     1      -3.081  -2.946  -1.470  1.00  0.00    -0.221 OA
BRANCH  19  22
HETATM   22  C   UNL     1      -4.558  -1.366  -0.036  1.00  0.00     0.153 A 
HETATM   23  N   UNL     1      -4.886  -0.985   1.216  1.00  0.00    -0.230 NA
HETATM   24  C   UNL     1      -5.892  -0.093   1.293  1.00  0.00     0.234 A 
HETATM   25  N   UNL     1      -6.582   0.440   0.267  1.00  0.00    -0.254 NA
HETATM   26  C   UNL     1      -6.201   0.016  -0.956  1.00  0.00     0.121 A 
HETATM   27  C   UNL     1      -5.186  -0.895  -1.171  1.00  0.00     0.063 A 
ENDBRANCH  19  22
ENDBRANCH  18  19
ENDBRANCH  17  18
ENDBRANCH   7  17
BRANCH   5  28
HETATM   28  S   UNL     1       2.026   2.067  -0.299  1.00  0.00     0.189 S 
HETATM   29  O   UNL     1       2.547   1.853  -1.626  1.00  0.00    -0.221 OA
HETATM   30  O   UNL     1       2.622   3.013   0.609  1.00  0.00    -0.221 OA
BRANCH  28  31
HETATM   31  C   UNL     1       0.309   2.428  -0.411  1.00  0.00     0.060 A 
HETATM   32  C   UNL     1      -0.328   3.118   0.621  1.00  0.00     0.025 A 
HETATM   33  C   UNL     1      -1.690   3.405   0.532  1.00  0.00     0.025 A 
HETATM   34  C   UNL     1      -2.416   3.002  -0.589  1.00  0.00     0.034 A 
HETATM   35 CL   UNL     1      -4.096   3.356  -0.698  1.00  0.00    -0.084 Cl
HETATM   36  C   UNL     1      -1.779   2.313  -1.621  1.00  0.00     0.025 A 
HETATM   37  C   UNL     1      -0.417   2.026  -1.532  1.00  0.00     0.025 A 
ENDBRANCH  28  31
ENDBRANCH   5  28
TORSDOF 6
