REMARK  18 active torsions:
REMARK  status: ('A' for Active; 'I' for Inactive)
REMARK    1  A    between atoms: O_2  and  C_3 
REMARK    2  A    between atoms: C_3  and  O_4 
REMARK    3  A    between atoms: O_4  and  C_5 
REMARK    4  A    between atoms: C_5  and  C_6 
REMARK    5  A    between atoms: C_6  and  C_7 
REMARK    6  A    between atoms: C_7  and  C_8 
REMARK    7  A    between atoms: C_8  and  C_9 
REMARK    8  A    between atoms: C_8  and  C_25 
REMARK    9  A    between atoms: C_9  and  C_11 
REMARK   10  A    between atoms: C_12  and  C_13 
REMARK   11  A    between atoms: C_16  and  O_17 
REMARK   12  A    between atoms: C_18  and  O_19 
REMARK   13  A    between atoms: O_19  and  C_20 
REMARK   14  A    between atoms: C_25  and  C_27 
REMARK   15  A    between atoms: C_28  and  C_29 
REMARK   16  A    between atoms: C_32  and  O_33 
REMARK   17  A    between atoms: C_34  and  O_35 
REMARK   18  A    between atoms: O_35  and  C_36 
ROOT
HETATM    1  C   UNL     1       0.739   1.925   0.478  1.00  0.00     0.133 C 
ENDROOT
BRANCH   1   2
HETATM    2  C   UNL     1       0.290   3.339   0.765  1.00  0.00     0.022 C 
BRANCH   2   3
HETATM    3  C   UNL     1       0.720   3.851   2.123  1.00  0.00     0.027 C 
BRANCH   3   4
HETATM    4  C   UNL     1       0.245   5.252   2.443  1.00  0.00     0.170 C 
BRANCH   4   5
HETATM    5  O   UNL     1      -0.492   5.822   1.373  1.00  0.00    -0.367 OA
BRANCH   5   6
HETATM    6  C   UNL     1      -0.828   7.147   1.752  1.00  0.00     0.337 C 
BRANCH   6   7
HETATM    7  O   UNL     1       0.302   8.002   1.729  1.00  0.00    -0.372 OA
HETATM    8  C   UNL     1       0.525   8.368   0.376  1.00  0.00     0.204 C 
ENDBRANCH   6   7
ENDBRANCH   5   6
ENDBRANCH   4   5
ENDBRANCH   3   4
ENDBRANCH   2   3
ENDBRANCH   1   2
BRANCH   1   9
HETATM    9  C   UNL     1       0.287   0.947   1.528  1.00  0.00     0.161 C 
HETATM   10  O   UNL     1       1.036   0.515   2.401  1.00  0.00    -0.292 OA
BRANCH   9  11
HETATM   11  C   UNL     1      -1.118   0.472   1.495  1.00  0.00     0.052 C 
HETATM   12  C   UNL     1      -1.958   0.924   0.559  1.00  0.00     0.015 C 
BRANCH  12  13
HETATM   13  C   UNL     1      -3.347   0.502   0.456  1.00  0.00    -0.033 A 
HETATM   14  C   UNL     1      -4.235   1.331  -0.228  1.00  0.00     0.014 A 
HETATM   15  C   UNL     1      -5.570   0.964  -0.366  1.00  0.00     0.040 A 
HETATM   16  C   UNL     1      -6.006  -0.246   0.164  1.00  0.00     0.099 A 
HETATM   17  C   UNL     1      -5.134  -1.105   0.831  1.00  0.00     0.112 A 
HETATM   18  C   UNL     1      -3.801  -0.717   0.971  1.00  0.00     0.051 A 
BRANCH  16  19
HETATM   19  O   UNL     1      -7.322  -0.574   0.017  1.00  0.00    -0.358 OA
HETATM   20  H   UNL     1      -7.902   0.008  -0.432  1.00  0.00     0.217 HD
ENDBRANCH  16  19
BRANCH  17  21
HETATM   21  O   UNL     1      -5.647  -2.279   1.305  1.00  0.00    -0.252 OA
BRANCH  21  22
HETATM   22  C   UNL     1      -4.724  -3.164   1.922  1.00  0.00     0.530 C 
HETATM   23  F   UNL     1      -3.758  -3.530   1.052  1.00  0.00    -0.144 F 
HETATM   24  F   UNL     1      -4.167  -2.601   3.013  1.00  0.00    -0.144 F 
HETATM   25  F   UNL     1      -5.380  -4.277   2.309  1.00  0.00    -0.144 F 
ENDBRANCH  21  22
ENDBRANCH  17  21
ENDBRANCH  12  13
ENDBRANCH   9  11
ENDBRANCH   1   9
BRANCH   1  26
HETATM   26  C   UNL     1       2.193   1.832   0.094  1.00  0.00     0.161 C 
HETATM   27  O   UNL     1       2.989   2.755   0.260  1.00  0.00    -0.292 OA
BRANCH  26  28
HETATM   28  C   UNL     1       2.686   0.587  -0.547  1.00  0.00     0.052 C 
HETATM   29  C   UNL     1       1.826  -0.339  -0.976  1.00  0.00     0.015 C 
BRANCH  29  30
HETATM   30  C   UNL     1       2.228  -1.594  -1.598  1.00  0.00    -0.033 A 
HETATM   31  C   UNL     1       1.221  -2.449  -2.047  1.00  0.00     0.014 A 
HETATM   32  C   UNL     1       1.545  -3.659  -2.654  1.00  0.00     0.040 A 
HETATM   33  C   UNL     1       2.884  -4.009  -2.808  1.00  0.00     0.099 A 
HETATM   34  C   UNL     1       3.910  -3.176  -2.365  1.00  0.00     0.112 A 
HETATM   35  C   UNL     1       3.565  -1.968  -1.760  1.00  0.00     0.051 A 
BRANCH  33  36
HETATM   36  O   UNL     1       3.168  -5.197  -3.418  1.00  0.00    -0.358 OA
HETATM   37  H   UNL     1       2.472  -5.750  -3.713  1.00  0.00     0.217 HD
ENDBRANCH  33  36
BRANCH  34  38
HETATM   38  O   UNL     1       5.194  -3.608  -2.546  1.00  0.00    -0.252 OA
BRANCH  38  39
HETATM   39  C   UNL     1       6.220  -2.719  -2.124  1.00  0.00     0.530 C 
HETATM   40  F   UNL     1       6.134  -2.474  -0.800  1.00  0.00    -0.144 F 
HETATM   41  F   UNL     1       7.420  -3.293  -2.369  1.00  0.00    -0.144 F 
HETATM   42  F   UNL     1       6.162  -1.559  -2.810  1.00  0.00    -0.144 F 
ENDBRANCH  38  39
ENDBRANCH  34  38
ENDBRANCH  29  30
ENDBRANCH  26  28
ENDBRANCH   1  26
TORSDOF 18
