REMARK  6 active torsions:
REMARK  status: ('A' for Active; 'I' for Inactive)
REMARK    1  A    between atoms: S_2  and  C_14 
REMARK    2  A    between atoms: S_2  and  C_23 
REMARK    3  A    between atoms: S_3  and  C_24 
REMARK    4  A    between atoms: S_3  and  C_31 
REMARK    5  A    between atoms: C_16  and  C_21 
REMARK    6  A    between atoms: C_21  and  C_24 
ROOT
HETATM    1  F   UNL     1       4.549   1.319   1.733  1.00  0.00    -0.205 F 
HETATM    2  F   UNL     1       4.930  -2.591  -2.056  1.00  0.00    -0.203 F 
HETATM    3  O   UNL     1       0.420  -1.293   2.194  1.00  0.00    -0.385 OA
HETATM    4  O   UNL     1       2.513  -1.627  -1.527  1.00  0.00    -0.347 OA
HETATM    5  C   UNL     1       2.051   0.450   0.528  1.00  0.00     0.111 C 
HETATM    6  C   UNL     1       0.931  -0.452  -0.059  1.00  0.00     0.068 C 
HETATM    7  C   UNL     1       0.668  -1.692   0.842  1.00  0.00     0.130 C 
HETATM    8  C   UNL     1       1.787   0.675   2.033  1.00  0.00     0.058 C 
HETATM    9  C   UNL     1       3.421  -0.115   0.182  1.00  0.00     0.041 A 
HETATM   10  C   UNL     1       1.311  -0.859  -1.486  1.00  0.00     0.185 C 
HETATM   11  C   UNL     1       1.537  -0.628   2.771  1.00  0.00     0.170 C 
HETATM   12  C   UNL     1       3.560  -1.098  -0.815  1.00  0.00     0.118 A 
HETATM   13  C   UNL     1       4.588   0.333   0.827  1.00  0.00     0.127 A 
HETATM   14  C   UNL     1       4.814  -1.640  -1.119  1.00  0.00     0.150 A 
HETATM   15  C   UNL     1       5.840  -0.200   0.512  1.00  0.00     0.046 A 
HETATM   16  C   UNL     1       5.952  -1.190  -0.457  1.00  0.00     0.048 A 
ENDROOT
BRANCH   7  17
HETATM   17  C   UNL     1      -0.558  -2.489   0.401  1.00  0.00     0.047 C 
BRANCH  17  18
HETATM   18  C   UNL     1      -1.804  -1.625   0.404  1.00  0.00     0.148 C 
BRANCH  18  19
HETATM   19  S   UNL     1      -3.223  -2.555  -0.082  1.00  0.00     0.178 S 
HETATM   20  O   UNL     1      -3.464  -3.562   0.937  1.00  0.00    -0.223 OA
HETATM   21  O   UNL     1      -3.073  -2.943  -1.474  1.00  0.00    -0.223 OA
BRANCH  19  22
HETATM   22  C   UNL     1      -4.547  -1.385  -0.014  1.00  0.00     0.094 A 
HETATM   23  C   UNL     1      -4.902  -0.613  -1.102  1.00  0.00     0.142 A 
HETATM   24  N   UNL     1      -5.903   0.291  -1.085  1.00  0.00    -0.253 NA
HETATM   25  C   UNL     1      -6.551   0.399   0.090  1.00  0.00     0.232 A 
HETATM   26  N   UNL     1      -6.302  -0.292   1.219  1.00  0.00    -0.253 NA
HETATM   27  C   UNL     1      -5.290  -1.179   1.131  1.00  0.00     0.142 A 
ENDBRANCH  19  22
ENDBRANCH  18  19
ENDBRANCH  17  18
ENDBRANCH   7  17
BRANCH   5  28
HETATM   28  S   UNL     1       2.026   2.069  -0.269  1.00  0.00     0.189 S 
HETATM   29  O   UNL     1       2.541   1.872  -1.600  1.00  0.00    -0.221 OA
HETATM   30  O   UNL     1       2.623   3.006   0.648  1.00  0.00    -0.221 OA
BRANCH  28  31
HETATM   31  C   UNL     1       0.306   2.427  -0.368  1.00  0.00     0.060 A 
HETATM   32  C   UNL     1      -0.327   3.103   0.675  1.00  0.00     0.025 A 
HETATM   33  C   UNL     1      -1.690   3.387   0.596  1.00  0.00     0.025 A 
HETATM   34  C   UNL     1      -2.420   2.995  -0.526  1.00  0.00     0.034 A 
HETATM   35 CL   UNL     1      -4.102   3.346  -0.623  1.00  0.00    -0.084 Cl
HETATM   36  C   UNL     1      -1.787   2.320  -1.569  1.00  0.00     0.025 A 
HETATM   37  C   UNL     1      -0.424   2.036  -1.490  1.00  0.00     0.025 A 
ENDBRANCH  28  31
ENDBRANCH   5  28
TORSDOF 6
