REMARK  2 active torsions:
REMARK  status: ('A' for Active; 'I' for Inactive)
REMARK    1  A    between atoms: N_1  and  C_4 
REMARK    2  A    between atoms: C_7  and  C_12 
ROOT
HETATM    1  N   UNL     1      -5.247   0.797   0.198  1.00  0.00    -0.191 NA
HETATM    2  N   UNL     1      -2.300  -2.445  -0.659  1.00  0.00    -0.191 NA
HETATM    3  C   UNL     1      -1.791   0.896   0.234  1.00  0.00     0.045 C 
HETATM    4  C   UNL     1      -2.790   0.008   0.006  1.00  0.00     0.125 C 
HETATM    5  C   UNL     1      -4.145   0.445   0.112  1.00  0.00     0.110 C 
HETATM    6  C   UNL     1      -2.517  -1.345  -0.360  1.00  0.00     0.110 C 
ENDROOT
BRANCH   3   7
HETATM    7  C   UNL     1      -0.362   0.634   0.168  1.00  0.00    -0.034 A 
HETATM    8  C   UNL     1       0.328   0.233   1.312  1.00  0.00     0.013 A 
HETATM    9  C   UNL     1       1.698  -0.019   1.248  1.00  0.00     0.030 A 
HETATM   10  C   UNL     1       2.379   0.130   0.040  1.00  0.00     0.029 A 
HETATM   11  C   UNL     1       1.690   0.531  -1.105  1.00  0.00     0.030 A 
HETATM   12  C   UNL     1       0.319   0.782  -1.041  1.00  0.00     0.013 A 
BRANCH  10  13
HETATM   13  N   UNL     1       3.765  -0.124  -0.025  1.00  0.00    -0.390 N 
HETATM   14  C   UNL     1       4.374  -1.101   0.856  1.00  0.00     0.149 C 
HETATM   15  C   UNL     1       4.596   0.577  -0.983  1.00  0.00     0.149 C 
ENDBRANCH  10  13
ENDBRANCH   3   7
TORSDOF 2
