REMARK  2 active torsions:
REMARK  status: ('A' for Active; 'I' for Inactive)
REMARK    1  A    between atoms: N_3  and  C_11 
REMARK    2  A    between atoms: C_9  and  C_10 
ROOT
HETATM    1  O   UNL     1       0.370   1.389  -0.069  1.00  0.00    -0.286 OA
HETATM    2  O   UNL     1       2.799  -2.694   0.129  1.00  0.00    -0.286 OA
HETATM    3  C   UNL     1       1.150  -0.910   0.043  1.00  0.00     0.067 A 
HETATM    4  C   UNL     1       2.708   0.827  -0.047  1.00  0.00     0.029 A 
HETATM    5  C   UNL     1       3.423  -0.374   0.011  1.00  0.00     0.029 A 
HETATM    6  C   UNL     1       1.261   0.569  -0.031  1.00  0.00     0.197 A 
HETATM    7  C   UNL     1       2.504  -1.520   0.071  1.00  0.00     0.197 A 
HETATM    8  C   UNL     1       0.005  -1.590   0.080  1.00  0.00     0.031 C 
HETATM    9  C   UNL     1       3.349   2.049  -0.109  1.00  0.00     0.016 A 
HETATM   10  C   UNL     1       4.804  -0.396   0.010  1.00  0.00     0.016 A 
HETATM   11  C   UNL     1       4.747   2.043  -0.110  1.00  0.00     0.001 A 
HETATM   12  C   UNL     1       5.467   0.833  -0.052  1.00  0.00     0.001 A 
ENDROOT
BRANCH   8  13
HETATM   13  C   UNL     1      -1.350  -1.006   0.053  1.00  0.00    -0.035 A 
HETATM   14  C   UNL     1      -1.977  -0.698   1.248  1.00  0.00     0.013 A 
HETATM   15  C   UNL     1      -3.258  -0.146   1.224  1.00  0.00     0.030 A 
HETATM   16  C   UNL     1      -3.892   0.090   0.004  1.00  0.00     0.029 A 
HETATM   17  C   UNL     1      -3.245  -0.226  -1.191  1.00  0.00     0.030 A 
HETATM   18  C   UNL     1      -1.964  -0.778  -1.166  1.00  0.00     0.013 A 
BRANCH  16  19
HETATM   19  N   UNL     1      -5.187   0.648  -0.021  1.00  0.00    -0.390 N 
HETATM   20  C   UNL     1      -5.619   1.548   1.030  1.00  0.00     0.149 C 
HETATM   21  C   UNL     1      -6.098   0.340  -1.106  1.00  0.00     0.149 C 
ENDBRANCH  16  19
ENDBRANCH   8  13
TORSDOF 2
