REMARK  4 active torsions:
REMARK  status: ('A' for Active; 'I' for Inactive)
REMARK    1  A    between atoms: C_1  and  C_17 
REMARK    2  A    between atoms: C_2  and  C_18 
REMARK    3  A    between atoms: C_7  and  C_21 
REMARK    4  A    between atoms: C_8  and  C_22 
ROOT
HETATM    1  C   UNL     1       1.395   0.001  -0.001  1.00  0.00     0.018 A 
HETATM    2  C   UNL     1      -1.394   0.000  -0.001  1.00  0.00     0.018 A 
HETATM    3  C   UNL     1       0.697   1.206  -0.080  1.00  0.00     0.022 A 
HETATM    4  C   UNL     1      -0.698   1.206  -0.080  1.00  0.00     0.022 A 
HETATM    5  C   UNL     1       0.697  -1.205   0.078  1.00  0.00     0.022 A 
HETATM    6  C   UNL     1      -0.697  -1.205   0.079  1.00  0.00     0.022 A 
ENDROOT
BRANCH   1   7
HETATM    7  C   UNL     1       2.824   0.000  -0.000  1.00  0.00    -0.061 C 
HETATM    8  C   UNL     1       4.027  -0.000  -0.000  1.00  0.00    -0.061 C 
BRANCH   8   9
HETATM    9  C   UNL     1       5.457  -0.000   0.000  1.00  0.00     0.018 A 
HETATM   10  C   UNL     1       6.153   1.197   0.160  1.00  0.00     0.020 A 
HETATM   11  C   UNL     1       7.548   1.197   0.161  1.00  0.00     0.001 A 
HETATM   12  C   UNL     1       8.245   0.000   0.001  1.00  0.00     0.000 A 
HETATM   13  C   UNL     1       7.548  -1.198  -0.159  1.00  0.00     0.001 A 
HETATM   14  C   UNL     1       6.153  -1.198  -0.160  1.00  0.00     0.020 A 
ENDBRANCH   8   9
ENDBRANCH   1   7
BRANCH   2  15
HETATM   15  C   UNL     1      -2.824  -0.000  -0.000  1.00  0.00    -0.061 C 
HETATM   16  C   UNL     1      -4.027  -0.000   0.000  1.00  0.00    -0.061 C 
BRANCH  16  17
HETATM   17  C   UNL     1      -5.456  -0.000   0.000  1.00  0.00     0.018 A 
HETATM   18  C   UNL     1      -6.153   1.205  -0.079  1.00  0.00     0.020 A 
HETATM   19  C   UNL     1      -7.548   1.205  -0.079  1.00  0.00     0.001 A 
HETATM   20  C   UNL     1      -8.245   0.000   0.001  1.00  0.00     0.000 A 
HETATM   21  C   UNL     1      -7.548  -1.205   0.080  1.00  0.00     0.001 A 
HETATM   22  C   UNL     1      -6.153  -1.206   0.080  1.00  0.00     0.020 A 
ENDBRANCH  16  17
ENDBRANCH   2  15
TORSDOF 4
