REMARK  2 active torsions:
REMARK  status: ('A' for Active; 'I' for Inactive)
REMARK    1  A    between atoms: N_3  and  C_11 
REMARK    2  A    between atoms: C_7  and  C_9 
ROOT
HETATM    1  O   UNL     1       0.115  -1.868   0.207  1.00  0.00    -0.267 OA
HETATM    2  N   UNL     1       2.477  -1.834   0.207  1.00  0.00    -0.322 N 
HETATM    3  C   UNL     1       2.850   0.421  -0.044  1.00  0.00     0.006 A 
HETATM    4  C   UNL     1       1.412   0.179  -0.019  1.00  0.00     0.045 A 
HETATM    5  C   UNL     1       3.450  -0.834   0.096  1.00  0.00     0.046 A 
HETATM    6  C   UNL     1       0.418   1.064  -0.119  1.00  0.00     0.029 C 
HETATM    7  C   UNL     1       1.187  -1.296   0.145  1.00  0.00     0.257 A 
HETATM    8  C   UNL     1       3.622   1.561  -0.170  1.00  0.00     0.015 A 
HETATM    9  C   UNL     1       4.820  -1.001   0.117  1.00  0.00     0.030 A 
HETATM   10  C   UNL     1       5.013   1.415  -0.151  1.00  0.00     0.001 A 
HETATM   11  C   UNL     1       5.606   0.146  -0.009  1.00  0.00     0.002 A 
HETATM   12  H   UNL     1       2.695  -2.818   0.317  1.00  0.00     0.169 HD
ENDROOT
BRANCH   6  13
HETATM   13  C   UNL     1      -1.023   0.752  -0.086  1.00  0.00    -0.035 A 
HETATM   14  C   UNL     1      -1.688   0.498  -1.273  1.00  0.00     0.013 A 
HETATM   15  C   UNL     1      -3.051   0.203  -1.242  1.00  0.00     0.030 A 
HETATM   16  C   UNL     1      -3.729   0.167  -0.023  1.00  0.00     0.029 A 
HETATM   17  C   UNL     1      -3.044   0.426   1.164  1.00  0.00     0.030 A 
HETATM   18  C   UNL     1      -1.681   0.721   1.132  1.00  0.00     0.013 A 
BRANCH  16  19
HETATM   19  N   UNL     1      -5.107  -0.132   0.009  1.00  0.00    -0.390 N 
HETATM   20  C   UNL     1      -5.694  -0.995  -0.997  1.00  0.00     0.149 C 
HETATM   21  C   UNL     1      -5.952   0.410   1.055  1.00  0.00     0.149 C 
ENDBRANCH  16  19
ENDBRANCH   6  13
TORSDOF 2
