REMARK  0 active torsions:
REMARK  status: ('A' for Active; 'I' for Inactive)
ROOT
HETATM    1  S   UNL     1       0.000   1.145   0.001  1.00  0.00    -0.068 SA
HETATM    2  N   UNL     1      -3.756   0.528  -0.001  1.00  0.00    -0.191 NA
HETATM    3  N   UNL     1       3.756   0.528  -0.000  1.00  0.00    -0.191 NA
HETATM    4  C   UNL     1      -0.713  -1.323   0.001  1.00  0.00     0.032 A 
HETATM    5  C   UNL     1       0.712  -1.324  -0.000  1.00  0.00     0.032 A 
HETATM    6  C   UNL     1      -1.230  -0.046   0.001  1.00  0.00     0.086 A 
HETATM    7  C   UNL     1       1.230  -0.047  -0.000  1.00  0.00     0.086 A 
HETATM    8  C   UNL     1      -2.619   0.269  -0.000  1.00  0.00     0.107 C 
HETATM    9  C   UNL     1       2.619   0.269  -0.000  1.00  0.00     0.107 C 
ENDROOT
TORSDOF 0
