REMARK  4 active torsions:
REMARK  status: ('A' for Active; 'I' for Inactive)
REMARK    1  A    between atoms: N_3  and  C_10 
REMARK    2  A    between atoms: N_5  and  C_12 
REMARK    3  A    between atoms: C_6  and  C_9 
REMARK    4  A    between atoms: C_8  and  C_9 
ROOT
HETATM    1  S   UNL     1       1.953  -2.903  -0.302  1.00  0.00    -0.040 SA
HETATM    2  O   UNL     1       1.996   2.191   0.138  1.00  0.00    -0.265 OA
HETATM    3  N   UNL     1       2.451  -0.145  -0.021  1.00  0.00    -0.253 N 
HETATM    4  N   UNL     1       0.296  -0.818  -0.054  1.00  0.00    -0.328 N 
HETATM    5  C   UNL     1       0.268   0.540   0.015  1.00  0.00     0.104 A 
HETATM    6  C   UNL     1       1.675   1.018   0.037  1.00  0.00     0.281 A 
HETATM    7  C   UNL     1       1.618  -1.283  -0.097  1.00  0.00     0.186 A 
HETATM    8  H   UNL     1      -0.527  -1.406  -0.099  1.00  0.00     0.168 HD
ENDROOT
BRANCH   5   9
HETATM    9  C   UNL     1      -0.819   1.308   0.055  1.00  0.00     0.046 C 
BRANCH   9  10
HETATM   10  C   UNL     1      -2.200   0.850   0.038  1.00  0.00    -0.034 A 
HETATM   11  C   UNL     1      -2.873   0.709  -1.176  1.00  0.00     0.013 A 
HETATM   12  C   UNL     1      -4.196   0.270  -1.193  1.00  0.00     0.030 A 
HETATM   13  C   UNL     1      -4.847  -0.030   0.004  1.00  0.00     0.029 A 
HETATM   14  C   UNL     1      -4.174   0.111   1.218  1.00  0.00     0.030 A 
HETATM   15  C   UNL     1      -2.850   0.550   1.235  1.00  0.00     0.013 A 
BRANCH  13  16
HETATM   16  N   UNL     1      -6.185  -0.474  -0.013  1.00  0.00    -0.390 N 
HETATM   17  C   UNL     1      -6.695  -1.226  -1.142  1.00  0.00     0.149 C 
HETATM   18  C   UNL     1      -7.065  -0.197   1.106  1.00  0.00     0.149 C 
ENDBRANCH  13  16
ENDBRANCH   9  10
ENDBRANCH   5   9
BRANCH   3  19
HETATM   19  C   UNL     1       3.879  -0.112   0.002  1.00  0.00     0.045 A 
HETATM   20  C   UNL     1       4.561   0.985  -0.527  1.00  0.00     0.030 A 
HETATM   21  C   UNL     1       5.955   1.018  -0.504  1.00  0.00     0.002 A 
HETATM   22  C   UNL     1       6.669  -0.045   0.048  1.00  0.00     0.000 A 
HETATM   23  C   UNL     1       5.989  -1.142   0.578  1.00  0.00     0.002 A 
HETATM   24  C   UNL     1       4.594  -1.175   0.555  1.00  0.00     0.030 A 
ENDBRANCH   3  19
TORSDOF 4
