REMARK  4 active torsions:
REMARK  status: ('A' for Active; 'I' for Inactive)
REMARK    1  A    between atoms: O_1  and  N_3 
REMARK    2  A    between atoms: N_3  and  C_9 
REMARK    3  A    between atoms: C_5  and  C_8 
REMARK    4  A    between atoms: C_10  and  C_13 
ROOT
HETATM    1  N   UNL     1      -0.536   3.432  -0.272  1.00  0.00    -0.191 NA
HETATM    2  C   UNL     1      -0.673  -0.049   0.291  1.00  0.00    -0.015 A 
HETATM    3  C   UNL     1      -1.499   1.042   0.020  1.00  0.00     0.057 A 
HETATM    4  C   UNL     1      -1.226  -1.321   0.443  1.00  0.00     0.015 A 
HETATM    5  C   UNL     1      -3.429  -0.410   0.055  1.00  0.00     0.096 A 
HETATM    6  C   UNL     1      -2.877   0.862  -0.098  1.00  0.00     0.058 A 
HETATM    7  C   UNL     1      -2.604  -1.501   0.325  1.00  0.00     0.036 A 
HETATM    8  C   UNL     1      -0.967   2.363  -0.141  1.00  0.00     0.100 C 
ENDROOT
BRANCH   2   9
HETATM    9  C   UNL     1       0.773   0.091   0.422  1.00  0.00     0.014 C 
HETATM   10  C   UNL     1       1.688  -0.561  -0.329  1.00  0.00     0.012 C 
BRANCH  10  11
HETATM   11  C   UNL     1       3.149  -0.433  -0.183  1.00  0.00    -0.036 A 
HETATM   12  C   UNL     1       3.690   0.678   0.463  1.00  0.00     0.011 A 
HETATM   13  C   UNL     1       5.073   0.800   0.601  1.00  0.00     0.001 A 
HETATM   14  C   UNL     1       5.914  -0.189   0.092  1.00  0.00     0.000 A 
HETATM   15  C   UNL     1       5.372  -1.300  -0.555  1.00  0.00     0.001 A 
HETATM   16  C   UNL     1       3.990  -1.422  -0.692  1.00  0.00     0.011 A 
ENDBRANCH  10  11
ENDBRANCH   2   9
BRANCH   5  17
HETATM   17  N   UNL     1      -4.823  -0.593  -0.064  1.00  0.00    -0.123 N 
HETATM   18  O   UNL     1      -5.334  -1.895   0.099  1.00  0.00    -0.538 OA
BRANCH  17  19
HETATM   19  O   UNL     1      -5.682   0.408  -0.476  1.00  0.00    -0.257 OA
HETATM   20  H   UNL     1      -6.536  -0.055  -0.506  1.00  0.00     0.248 HD
ENDBRANCH  17  19
ENDBRANCH   5  17
TORSDOF 4
