REMARK  3 active torsions:
REMARK  status: ('A' for Active; 'I' for Inactive)
REMARK    1  A    between atoms: O_3  and  C_17 
REMARK    2  A    between atoms: N_5  and  C_12 
REMARK    3  A    between atoms: C_6  and  C_7 
ROOT
HETATM    1  S   UNL     1       1.096   1.425  -0.267  1.00  0.00    -0.067 SA
HETATM    2  N   UNL     1       1.032  -1.121   0.143  1.00  0.00    -0.240 NA
HETATM    3  C   UNL     1       0.280  -0.061  -0.042  1.00  0.00     0.109 A 
HETATM    4  C   UNL     1       2.606   0.608  -0.108  1.00  0.00     0.038 A 
HETATM    5  C   UNL     1       2.369  -0.753   0.108  1.00  0.00     0.075 A 
HETATM    6  C   UNL     1       3.907   1.134  -0.169  1.00  0.00     0.057 A 
HETATM    7  C   UNL     1       3.475  -1.616   0.269  1.00  0.00     0.036 A 
HETATM    8  C   UNL     1       4.984   0.258  -0.007  1.00  0.00     0.067 A 
HETATM    9  C   UNL     1       4.773  -1.100   0.210  1.00  0.00     0.039 A 
ENDROOT
BRANCH   3  10
HETATM   10  C   UNL     1      -1.164  -0.068  -0.066  1.00  0.00     0.003 A 
HETATM   11  C   UNL     1      -1.869   1.115   0.151  1.00  0.00     0.059 A 
HETATM   12  C   UNL     1      -3.264   1.108   0.129  1.00  0.00     0.143 A 
HETATM   13  F   UNL     1      -3.933   2.251   0.337  1.00  0.00    -0.204 F 
HETATM   14  C   UNL     1      -3.952  -0.081  -0.109  1.00  0.00     0.066 A 
HETATM   15  C   UNL     1      -3.245  -1.264  -0.326  1.00  0.00     0.033 A 
HETATM   16  C   UNL     1      -1.851  -1.258  -0.304  1.00  0.00     0.017 A 
BRANCH  14  17
HETATM   17  N   UNL     1      -5.362  -0.090  -0.134  1.00  0.00    -0.392 N 
HETATM   18  C   UNL     1      -6.139  -1.230   0.244  1.00  0.00     0.146 C 
HETATM   19  H   UNL     1      -5.812   0.819  -0.089  1.00  0.00     0.159 HD
ENDBRANCH  14  17
ENDBRANCH   3  10
BRANCH   8  20
HETATM   20  O   UNL     1       6.256   0.744  -0.061  1.00  0.00    -0.361 OA
HETATM   21  H   UNL     1       6.222   1.703  -0.217  1.00  0.00     0.217 HD
ENDBRANCH   8  20
TORSDOF 3
