REMARK  2 active torsions:
REMARK  status: ('A' for Active; 'I' for Inactive)
REMARK    1  A    between atoms: N_4  and  C_11 
REMARK    2  A    between atoms: C_5  and  C_6 
ROOT
HETATM    1  S   UNL     1       0.924  -1.506   0.216  1.00  0.00    -0.067 SA
HETATM    2  F   UNL     1       6.040  -0.636   0.203  1.00  0.00    -0.206 F 
HETATM    3  N   UNL     1       0.787   1.036  -0.199  1.00  0.00    -0.240 NA
HETATM    4  C   UNL     1       0.065  -0.050  -0.042  1.00  0.00     0.109 A 
HETATM    5  C   UNL     1       2.410  -0.637   0.112  1.00  0.00     0.038 A 
HETATM    6  C   UNL     1       2.134   0.715  -0.114  1.00  0.00     0.075 A 
HETATM    7  C   UNL     1       3.724  -1.117   0.223  1.00  0.00     0.063 A 
HETATM    8  C   UNL     1       3.214   1.616  -0.233  1.00  0.00     0.036 A 
HETATM    9  C   UNL     1       4.775  -0.204   0.101  1.00  0.00     0.117 A 
HETATM   10  C   UNL     1       4.526   1.145  -0.124  1.00  0.00     0.044 A 
ENDROOT
BRANCH   4  11
HETATM   11  C   UNL     1      -1.377  -0.093  -0.071  1.00  0.00    -0.000 A 
HETATM   12  C   UNL     1      -2.034  -1.300  -0.312  1.00  0.00     0.016 A 
HETATM   13  C   UNL     1      -3.428  -1.342  -0.340  1.00  0.00     0.030 A 
HETATM   14  C   UNL     1      -4.165  -0.177  -0.128  1.00  0.00     0.027 A 
HETATM   15  C   UNL     1      -3.509   1.030   0.113  1.00  0.00     0.030 A 
HETATM   16  C   UNL     1      -2.115   1.072   0.141  1.00  0.00     0.016 A 
BRANCH  14  17
HETATM   17  N   UNL     1      -5.575  -0.219  -0.157  1.00  0.00    -0.394 N 
HETATM   18  C   UNL     1      -6.395   0.666   0.611  1.00  0.00     0.146 C 
HETATM   19  H   UNL     1      -5.989  -1.094  -0.462  1.00  0.00     0.159 HD
ENDBRANCH  14  17
ENDBRANCH   4  11
TORSDOF 2
