REMARK  1 active torsions:
REMARK  status: ('A' for Active; 'I' for Inactive)
REMARK    1  A    between atoms: N_3  and  C_6 
ROOT
HETATM    1  S   UNL     1      -0.104   1.389   0.137  1.00  0.00    -0.067 SA
HETATM    2  F   UNL     1      -6.562   0.208   0.021  1.00  0.00    -0.206 F 
HETATM    3  N   UNL     1      -0.299  -1.170  -0.118  1.00  0.00    -0.240 NA
HETATM    4  C   UNL     1       1.362   0.486   0.048  1.00  0.00     0.038 A 
HETATM    5  C   UNL     1       3.718   0.005   0.003  1.00  0.00     0.030 A 
HETATM    6  C   UNL     1       1.055  -0.872  -0.087  1.00  0.00     0.075 A 
HETATM    7  C   UNL     1       2.688   0.945   0.095  1.00  0.00     0.050 A 
HETATM    8  C   UNL     1      -0.996  -0.063  -0.008  1.00  0.00     0.109 A 
HETATM    9  C   UNL     1       3.437  -1.350  -0.131  1.00  0.00     0.031 A 
HETATM   10  C   UNL     1       2.115  -1.800  -0.177  1.00  0.00     0.035 A 
HETATM   11  C   UNL     1      -2.438   0.007  -0.002  1.00  0.00    -0.000 A 
HETATM   12  C   UNL     1      -3.079   1.210  -0.297  1.00  0.00     0.017 A 
HETATM   13  C   UNL     1      -3.190  -1.128   0.301  1.00  0.00     0.017 A 
HETATM   14  C   UNL     1      -4.473   1.278  -0.290  1.00  0.00     0.043 A 
HETATM   15  C   UNL     1      -4.583  -1.060   0.309  1.00  0.00     0.043 A 
HETATM   16  C   UNL     1      -5.224   0.143   0.013  1.00  0.00     0.116 A 
ENDROOT
BRANCH   5  17
HETATM   17  N   UNL     1       5.061   0.441   0.048  1.00  0.00    -0.390 N 
HETATM   18  C   UNL     1       6.144  -0.517  -0.046  1.00  0.00     0.149 C 
HETATM   19  C   UNL     1       5.370   1.849   0.180  1.00  0.00     0.149 C 
ENDBRANCH   5  17
TORSDOF 1
