REMARK  9 active torsions:
REMARK  status: ('A' for Active; 'I' for Inactive)
REMARK    1  A    between atoms: O_2  and  C_6 
REMARK    2  A    between atoms: O_2  and  C_9 
REMARK    3  A    between atoms: O_3  and  C_7 
REMARK    4  A    between atoms: N_4  and  C_11 
REMARK    5  A    between atoms: C_5  and  C_6 
REMARK    6  A    between atoms: C_5  and  C_7 
REMARK    7  A    between atoms: C_5  and  C_8 
REMARK    8  A    between atoms: C_10  and  C_17 
REMARK    9  A    between atoms: C_14  and  C_22 
ROOT
HETATM    1  C   UNL     1      -3.197  -0.389  -0.141  1.00  0.00     0.068 A 
HETATM    2  C   UNL     1      -0.449   0.007  -0.289  1.00  0.00    -0.036 A 
HETATM    3  C   UNL     1      -2.658   0.299  -1.222  1.00  0.00     0.037 A 
HETATM    4  C   UNL     1      -2.375  -0.881   0.867  1.00  0.00     0.037 A 
HETATM    5  C   UNL     1      -1.280   0.498  -1.297  1.00  0.00     0.014 A 
HETATM    6  C   UNL     1      -0.997  -0.682   0.792  1.00  0.00     0.014 A 
ENDROOT
BRANCH   2   7
HETATM    7  C   UNL     1       0.989   0.214  -0.367  1.00  0.00     0.012 C 
HETATM    8  C   UNL     1       1.919  -0.508   0.300  1.00  0.00     0.012 C 
BRANCH   8   9
HETATM    9  C   UNL     1       3.376  -0.312   0.207  1.00  0.00    -0.036 A 
HETATM   10  C   UNL     1       3.869   0.896  -0.260  1.00  0.00     0.013 A 
HETATM   11  C   UNL     1       5.248   1.082  -0.348  1.00  0.00     0.030 A 
HETATM   12  C   UNL     1       6.116   0.058   0.030  1.00  0.00     0.029 A 
HETATM   13  C   UNL     1       5.604  -1.152   0.498  1.00  0.00     0.030 A 
HETATM   14  C   UNL     1       4.225  -1.338   0.587  1.00  0.00     0.013 A 
BRANCH  12  15
HETATM   15  N   UNL     1       7.511   0.247  -0.060  1.00  0.00    -0.390 N 
HETATM   16  C   UNL     1       8.069   1.124  -1.070  1.00  0.00     0.149 C 
HETATM   17  C   UNL     1       8.403  -0.423   0.865  1.00  0.00     0.149 C 
ENDBRANCH  12  15
ENDBRANCH   8   9
ENDBRANCH   2   7
BRANCH   1  18
HETATM   18  O   UNL     1      -4.551  -0.583  -0.067  1.00  0.00    -0.351 OA
BRANCH  18  19
HETATM   19  C   UNL     1      -5.375   0.408  -0.666  1.00  0.00     0.184 C 
BRANCH  19  20
HETATM   20  C   UNL     1      -6.738   0.480   0.035  1.00  0.00     0.062 C 
BRANCH  20  21
HETATM   21  C   UNL     1      -7.494  -0.855  -0.026  1.00  0.00     0.173 C 
BRANCH  21  22
HETATM   22  O   UNL     1      -7.699  -1.232  -1.381  1.00  0.00    -0.400 OA
HETATM   23  H   UNL     1      -8.213  -0.525  -1.808  1.00  0.00     0.209 HD
ENDBRANCH  21  22
ENDBRANCH  20  21
BRANCH  20  24
HETATM   24  C   UNL     1      -6.578   0.921   1.490  1.00  0.00     0.231 C 
HETATM   25  F   UNL     1      -5.937   2.120   1.522  1.00  0.00    -0.255 F 
ENDBRANCH  20  24
ENDBRANCH  19  20
ENDBRANCH  18  19
ENDBRANCH   1  18
TORSDOF 9
