REMARK  6 active torsions:
REMARK  status: ('A' for Active; 'I' for Inactive)
REMARK    1  A    between atoms: O_2  and  C_23 
REMARK    2  A    between atoms: N_5  and  C_9 
REMARK    3  A    between atoms: N_6  and  C_30 
REMARK    4  A    between atoms: C_9  and  C_12 
REMARK    5  A    between atoms: C_15  and  C_20 
REMARK    6  A    between atoms: C_24  and  C_25 
ROOT
HETATM    1  O   UNL     1      -0.051   0.155  -1.217  1.00  0.00    -0.267 OA
HETATM    2  N   UNL     1      -2.210  -0.820  -1.087  1.00  0.00    -0.309 N 
HETATM    3  C   UNL     1      -2.746  -1.955  -0.445  1.00  0.00     0.049 A 
HETATM    4  C   UNL     1      -1.742  -2.626   0.264  1.00  0.00     0.006 A 
HETATM    5  C   UNL     1      -0.517  -1.864   0.048  1.00  0.00     0.045 A 
HETATM    6  C   UNL     1      -0.838  -0.692  -0.833  1.00  0.00     0.259 A 
HETATM    7  C   UNL     1      -4.053  -2.414  -0.457  1.00  0.00     0.030 A 
HETATM    8  C   UNL     1      -2.020  -3.776   0.981  1.00  0.00     0.015 A 
HETATM    9  C   UNL     1       0.707  -2.108   0.520  1.00  0.00     0.018 C 
HETATM   10  C   UNL     1      -4.342  -3.575   0.264  1.00  0.00     0.002 A 
HETATM   11  C   UNL     1      -3.335  -4.249   0.977  1.00  0.00     0.001 A 
ENDROOT
BRANCH   9  12
HETATM   12  C   UNL     1       1.854  -1.273   0.235  1.00  0.00     0.002 C 
HETATM   13  C   UNL     1       3.080  -1.530   0.717  1.00  0.00     0.011 C 
BRANCH  13  14
HETATM   14  C   UNL     1       4.277  -0.710   0.464  1.00  0.00    -0.036 A 
HETATM   15  C   UNL     1       4.309   0.162  -0.624  1.00  0.00     0.014 A 
HETATM   16  C   UNL     1       5.443   0.937  -0.864  1.00  0.00     0.037 A 
HETATM   17  C   UNL     1       6.546   0.842  -0.015  1.00  0.00     0.102 A 
HETATM   18  C   UNL     1       6.514  -0.029   1.074  1.00  0.00     0.037 A 
HETATM   19  C   UNL     1       5.380  -0.805   1.314  1.00  0.00     0.014 A 
BRANCH  17  20
HETATM   20  N   UNL     1       7.700   1.632  -0.258  1.00  0.00    -0.116 N 
HETATM   21  O   UNL     1       7.709   2.409  -1.243  1.00  0.00    -0.532 OA
HETATM   22  O   UNL     1       8.681   1.530   0.518  1.00  0.00    -0.532 OA
ENDBRANCH  17  20
ENDBRANCH  13  14
ENDBRANCH   9  12
BRANCH   2  23
HETATM   23  C   UNL     1      -2.996   0.078  -1.898  1.00  0.00     0.171 C 
BRANCH  23  24
HETATM   24  C   UNL     1      -3.738   1.083  -1.065  1.00  0.00    -0.040 A 
HETATM   25  C   UNL     1      -5.130   1.145  -1.121  1.00  0.00     0.011 A 
HETATM   26  C   UNL     1      -5.819   2.078  -0.346  1.00  0.00     0.037 A 
HETATM   27  C   UNL     1      -5.115   2.950   0.484  1.00  0.00     0.068 A 
HETATM   28  C   UNL     1      -3.723   2.889   0.540  1.00  0.00     0.037 A 
HETATM   29  C   UNL     1      -3.034   1.955  -0.234  1.00  0.00     0.011 A 
BRANCH  27  30
HETATM   30  O   UNL     1      -5.787   3.861   1.241  1.00  0.00    -0.356 OA
HETATM   31  C   UNL     1      -5.005   4.721   2.068  1.00  0.00     0.210 C 
ENDBRANCH  27  30
ENDBRANCH  23  24
ENDBRANCH   2  23
TORSDOF 6
