REMARK  10 active torsions:
REMARK  status: ('A' for Active; 'I' for Inactive)
REMARK    1  A    between atoms: O_1  and  C_6 
REMARK    2  A    between atoms: O_1  and  C_11 
REMARK    3  A    between atoms: O_2  and  C_7 
REMARK    4  A    between atoms: O_2  and  C_17 
REMARK    5  A    between atoms: O_3  and  C_22 
REMARK    6  A    between atoms: N_4  and  C_5 
REMARK    7  A    between atoms: C_6  and  C_7 
REMARK    8  A    between atoms: C_10  and  C_23 
REMARK    9  A    between atoms: C_16  and  C_24 
REMARK   10  A    between atoms: C_17  and  C_22 
ROOT
HETATM    1  C   UNL     1      -3.047   0.071  -0.019  1.00  0.00     0.068 A 
HETATM    2  C   UNL     1      -0.259   0.055   0.001  1.00  0.00     0.018 A 
HETATM    3  C   UNL     1      -2.342   1.261  -0.196  1.00  0.00     0.038 A 
HETATM    4  C   UNL     1      -2.358  -1.127   0.168  1.00  0.00     0.038 A 
HETATM    5  C   UNL     1      -0.947   1.253  -0.186  1.00  0.00     0.023 A 
HETATM    6  C   UNL     1      -0.963  -1.135   0.178  1.00  0.00     0.023 A 
ENDROOT
BRANCH   2   7
HETATM    7  C   UNL     1       1.171   0.047   0.011  1.00  0.00    -0.061 C 
HETATM    8  C   UNL     1       2.374   0.040   0.019  1.00  0.00    -0.061 C 
BRANCH   8   9
HETATM    9  C   UNL     1       3.803   0.033   0.028  1.00  0.00     0.018 A 
HETATM   10  C   UNL     1       4.492  -1.136   0.351  1.00  0.00     0.023 A 
HETATM   11  C   UNL     1       5.887  -1.144   0.359  1.00  0.00     0.031 A 
HETATM   12  C   UNL     1       6.592   0.017   0.045  1.00  0.00     0.029 A 
HETATM   13  C   UNL     1       5.903   1.186  -0.279  1.00  0.00     0.031 A 
HETATM   14  C   UNL     1       4.508   1.194  -0.287  1.00  0.00     0.023 A 
BRANCH  12  15
HETATM   15  N   UNL     1       8.003   0.009   0.054  1.00  0.00    -0.390 N 
HETATM   16  C   UNL     1       8.732  -1.208  -0.244  1.00  0.00     0.149 C 
HETATM   17  C   UNL     1       8.741   1.214   0.377  1.00  0.00     0.149 C 
ENDBRANCH  12  15
ENDBRANCH   8   9
ENDBRANCH   2   7
BRANCH   1  18
HETATM   18  O   UNL     1      -4.409   0.080  -0.030  1.00  0.00    -0.349 OA
BRANCH  18  19
HETATM   19  C   UNL     1      -5.062  -1.099  -0.496  1.00  0.00     0.201 C 
BRANCH  19  20
HETATM   20  C   UNL     1      -6.396  -0.717  -1.108  1.00  0.00     0.194 C 
BRANCH  20  21
HETATM   21  O   UNL     1      -7.203  -0.099  -0.112  1.00  0.00    -0.387 OA
BRANCH  21  22
HETATM   22  C   UNL     1      -8.469   0.281  -0.631  1.00  0.00     0.193 C 
BRANCH  22  23
HETATM   23  C   UNL     1      -9.281   0.931   0.472  1.00  0.00     0.190 C 
BRANCH  23  24
HETATM   24  O   UNL     1      -9.470  -0.007   1.525  1.00  0.00    -0.399 OA
HETATM   25  H   UNL     1      -9.960  -0.763   1.159  1.00  0.00     0.209 HD
ENDBRANCH  23  24
ENDBRANCH  22  23
ENDBRANCH  21  22
ENDBRANCH  20  21
ENDBRANCH  19  20
ENDBRANCH  18  19
ENDBRANCH   1  18
TORSDOF 10
