REMARK  12 active torsions:
REMARK  status: ('A' for Active; 'I' for Inactive)
REMARK    1  A    between atoms: O_2  and  C_6 
REMARK    2  A    between atoms: O_2  and  C_7 
REMARK    3  A    between atoms: O_3  and  C_8 
REMARK    4  A    between atoms: O_3  and  C_10 
REMARK    5  A    between atoms: O_4  and  C_9 
REMARK    6  A    between atoms: O_4  and  C_13 
REMARK    7  A    between atoms: N_5  and  C_19 
REMARK    8  A    between atoms: C_6  and  C_8 
REMARK    9  A    between atoms: C_7  and  C_9 
REMARK   10  A    between atoms: C_13  and  C_17 
REMARK   11  A    between atoms: C_14  and  C_22 
REMARK   12  A    between atoms: C_18  and  C_25 
ROOT
HETATM    1  C   UNL     1       1.613  -1.520  -0.639  1.00  0.00     0.068 A 
HETATM    2  C   UNL     1       1.150  -0.294  -1.117  1.00  0.00     0.038 A 
HETATM    3  C   UNL     1       0.731  -2.404  -0.017  1.00  0.00     0.038 A 
HETATM    4  C   UNL     1      -1.077  -0.836  -0.353  1.00  0.00     0.018 A 
HETATM    5  C   UNL     1      -0.195   0.048  -0.975  1.00  0.00     0.023 A 
HETATM    6  C   UNL     1      -0.614  -2.062   0.125  1.00  0.00     0.023 A 
ENDROOT
BRANCH   4   7
HETATM    7  C   UNL     1      -2.456  -0.487  -0.207  1.00  0.00    -0.061 C 
HETATM    8  C   UNL     1      -3.615  -0.193  -0.085  1.00  0.00    -0.061 C 
BRANCH   8   9
HETATM    9  C   UNL     1      -4.993   0.157   0.061  1.00  0.00     0.018 A 
HETATM   10  C   UNL     1      -5.348   1.449   0.448  1.00  0.00     0.023 A 
HETATM   11  C   UNL     1      -6.693   1.790   0.590  1.00  0.00     0.030 A 
HETATM   12  C   UNL     1      -7.683   0.838   0.344  1.00  0.00     0.025 A 
HETATM   13  C   UNL     1      -7.328  -0.454  -0.042  1.00  0.00     0.030 A 
HETATM   14  C   UNL     1      -5.983  -0.795  -0.184  1.00  0.00     0.023 A 
BRANCH  12  15
HETATM   15  N   UNL     1      -9.043   1.183   0.488  1.00  0.00    -0.399 N 
HETATM   16  H   UNL     1      -9.761   0.493   0.311  1.00  0.00     0.156 HD
HETATM   17  H   UNL     1      -9.301   2.119   0.769  1.00  0.00     0.156 HD
ENDBRANCH  12  15
ENDBRANCH   8   9
ENDBRANCH   4   7
BRANCH   1  18
HETATM   18  O   UNL     1       2.924  -1.854  -0.779  1.00  0.00    -0.349 OA
BRANCH  18  19
HETATM   19  C   UNL     1       3.488  -2.706   0.217  1.00  0.00     0.201 C 
BRANCH  19  20
HETATM   20  C   UNL     1       4.969  -2.406   0.343  1.00  0.00     0.194 C 
BRANCH  20  21
HETATM   21  O   UNL     1       5.138  -1.040   0.700  1.00  0.00    -0.387 OA
BRANCH  21  22
HETATM   22  C   UNL     1       6.511  -0.702   0.833  1.00  0.00     0.193 C 
BRANCH  22  23
HETATM   23  C   UNL     1       6.628   0.768   1.189  1.00  0.00     0.193 C 
BRANCH  23  24
HETATM   24  O   UNL     1       6.054   1.545   0.145  1.00  0.00    -0.387 OA
BRANCH  24  25
HETATM   25  C   UNL     1       6.135   2.935   0.426  1.00  0.00     0.199 C 
BRANCH  25  26
HETATM   26  C   UNL     1       5.498   3.700  -0.712  1.00  0.00     0.248 C 
HETATM   27  F   UNL     1       4.188   3.339  -0.798  1.00  0.00    -0.253 F 
ENDBRANCH  25  26
ENDBRANCH  24  25
ENDBRANCH  23  24
ENDBRANCH  22  23
ENDBRANCH  21  22
ENDBRANCH  20  21
ENDBRANCH  19  20
ENDBRANCH  18  19
ENDBRANCH   1  18
TORSDOF 12
