REMARK  2 active torsions:
REMARK  status: ('A' for Active; 'I' for Inactive)
REMARK    1  A    between atoms: N_4  and  C_11 
REMARK    2  A    between atoms: C_5  and  C_6 
ROOT
HETATM    1 BR   UNL     1       6.547  -0.739   0.057  1.00  0.00    -0.051 Br
HETATM    2  S   UNL     1       0.921  -1.508   0.166  1.00  0.00    -0.067 SA
HETATM    3  N   UNL     1       0.738   1.051  -0.103  1.00  0.00    -0.240 NA
HETATM    4  C   UNL     1       0.036  -0.052   0.016  1.00  0.00     0.109 A 
HETATM    5  C   UNL     1       2.392  -0.613   0.065  1.00  0.00     0.037 A 
HETATM    6  C   UNL     1       2.091   0.745  -0.078  1.00  0.00     0.075 A 
HETATM    7  C   UNL     1       3.715  -1.079   0.107  1.00  0.00     0.040 A 
HETATM    8  C   UNL     1       3.156   1.667  -0.182  1.00  0.00     0.034 A 
HETATM    9  C   UNL     1       4.750  -0.146   0.003  1.00  0.00     0.012 A 
HETATM   10  C   UNL     1       4.476   1.210  -0.140  1.00  0.00     0.021 A 
ENDROOT
BRANCH   4  11
HETATM   11  C   UNL     1      -1.406  -0.115   0.031  1.00  0.00    -0.000 A 
HETATM   12  C   UNL     1      -2.150   1.026   0.329  1.00  0.00     0.016 A 
HETATM   13  C   UNL     1      -3.544   0.965   0.343  1.00  0.00     0.030 A 
HETATM   14  C   UNL     1      -4.192  -0.237   0.058  1.00  0.00     0.027 A 
HETATM   15  C   UNL     1      -3.446  -1.378  -0.240  1.00  0.00     0.030 A 
HETATM   16  C   UNL     1      -2.053  -1.317  -0.254  1.00  0.00     0.016 A 
BRANCH  14  17
HETATM   17  N   UNL     1      -5.601  -0.299   0.072  1.00  0.00    -0.394 N 
HETATM   18  C   UNL     1      -6.431   0.820  -0.251  1.00  0.00     0.146 C 
HETATM   19  H   UNL     1      -6.008  -1.225  -0.017  1.00  0.00     0.159 HD
ENDBRANCH  14  17
ENDBRANCH   4  11
TORSDOF 2
