REMARK  12 active torsions:
REMARK  status: ('A' for Active; 'I' for Inactive)
REMARK    1  A    between atoms: O_2  and  C_6 
REMARK    2  A    between atoms: O_2  and  C_9 
REMARK    3  A    between atoms: O_3  and  C_8 
REMARK    4  A    between atoms: O_3  and  C_13 
REMARK    5  A    between atoms: O_4  and  C_10 
REMARK    6  A    between atoms: O_4  and  C_22 
REMARK    7  A    between atoms: N_5  and  C_7 
REMARK    8  A    between atoms: C_6  and  C_8 
REMARK    9  A    between atoms: C_9  and  C_10 
REMARK   10  A    between atoms: C_14  and  C_25 
REMARK   11  A    between atoms: C_19  and  C_27 
REMARK   12  A    between atoms: C_22  and  C_26 
ROOT
HETATM    1  C   UNL     1       2.395  -1.559  -0.611  1.00  0.00     0.068 A 
HETATM    2  C   UNL     1      -0.319  -0.958  -0.374  1.00  0.00     0.018 A 
HETATM    3  C   UNL     1       1.898  -0.362  -1.126  1.00  0.00     0.038 A 
HETATM    4  C   UNL     1       1.535  -2.456   0.023  1.00  0.00     0.038 A 
HETATM    5  C   UNL     1       0.541  -0.062  -1.008  1.00  0.00     0.023 A 
HETATM    6  C   UNL     1       0.178  -2.156   0.142  1.00  0.00     0.023 A 
ENDROOT
BRANCH   2   7
HETATM    7  C   UNL     1      -1.711  -0.651  -0.253  1.00  0.00    -0.061 C 
HETATM    8  C   UNL     1      -2.880  -0.392  -0.151  1.00  0.00    -0.061 C 
BRANCH   8   9
HETATM    9  C   UNL     1      -4.270  -0.085  -0.030  1.00  0.00     0.018 A 
HETATM   10  C   UNL     1      -4.672   1.204   0.319  1.00  0.00     0.023 A 
HETATM   11  C   UNL     1      -6.029   1.504   0.436  1.00  0.00     0.031 A 
HETATM   12  C   UNL     1      -6.984   0.514   0.204  1.00  0.00     0.029 A 
HETATM   13  C   UNL     1      -6.582  -0.775  -0.145  1.00  0.00     0.031 A 
HETATM   14  C   UNL     1      -5.225  -1.075  -0.262  1.00  0.00     0.023 A 
BRANCH  12  15
HETATM   15  N   UNL     1      -8.357   0.817   0.323  1.00  0.00    -0.390 N 
HETATM   16  C   UNL     1      -8.784   2.154   0.685  1.00  0.00     0.149 C 
HETATM   17  C   UNL     1      -9.357  -0.201   0.071  1.00  0.00     0.149 C 
ENDBRANCH  12  15
ENDBRANCH   8   9
ENDBRANCH   2   7
BRANCH   1  18
HETATM   18  O   UNL     1       3.719  -1.853  -0.728  1.00  0.00    -0.349 OA
BRANCH  18  19
HETATM   19  C   UNL     1       4.298  -2.661   0.296  1.00  0.00     0.201 C 
BRANCH  19  20
HETATM   20  C   UNL     1       5.767  -2.309   0.432  1.00  0.00     0.194 C 
BRANCH  20  21
HETATM   21  O   UNL     1       5.886  -0.929   0.755  1.00  0.00    -0.387 OA
BRANCH  21  22
HETATM   22  C   UNL     1       7.246  -0.543   0.895  1.00  0.00     0.193 C 
BRANCH  22  23
HETATM   23  C   UNL     1       7.309   0.938   1.214  1.00  0.00     0.193 C 
BRANCH  23  24
HETATM   24  O   UNL     1       6.724   1.670   0.144  1.00  0.00    -0.387 OA
BRANCH  24  25
HETATM   25  C   UNL     1       6.756   3.068   0.390  1.00  0.00     0.199 C 
BRANCH  25  26
HETATM   26  C   UNL     1       6.108   3.783  -0.775  1.00  0.00     0.248 C 
HETATM   27  F   UNL     1       4.812   3.377  -0.867  1.00  0.00    -0.253 F 
ENDBRANCH  25  26
ENDBRANCH  24  25
ENDBRANCH  23  24
ENDBRANCH  22  23
ENDBRANCH  21  22
ENDBRANCH  20  21
ENDBRANCH  19  20
ENDBRANCH  18  19
ENDBRANCH   1  18
TORSDOF 12
