REMARK  10 active torsions:
REMARK  status: ('A' for Active; 'I' for Inactive)
REMARK    1  A    between atoms: O_2  and  C_8 
REMARK    2  A    between atoms: O_2  and  C_10 
REMARK    3  A    between atoms: N_3  and  C_19 
REMARK    4  A    between atoms: C_4  and  C_5 
REMARK    5  A    between atoms: C_4  and  C_6 
REMARK    6  A    between atoms: C_5  and  C_7 
REMARK    7  A    between atoms: C_6  and  C_8 
REMARK    8  A    between atoms: C_7  and  C_9 
REMARK    9  A    between atoms: C_13  and  C_16 
REMARK   10  A    between atoms: C_17  and  C_18 
ROOT
HETATM    1  C   UNL     1      -1.815  -1.013  -0.352  1.00  0.00     0.068 A 
HETATM    2  C   UNL     1      -0.923  -1.725   0.450  1.00  0.00     0.037 A 
HETATM    3  C   UNL     1      -1.363   0.068  -1.109  1.00  0.00     0.037 A 
HETATM    4  C   UNL     1       0.874  -0.275  -0.262  1.00  0.00    -0.036 A 
HETATM    5  C   UNL     1       0.422  -1.356   0.495  1.00  0.00     0.014 A 
HETATM    6  C   UNL     1      -0.018   0.437  -1.064  1.00  0.00     0.014 A 
ENDROOT
BRANCH   4   7
HETATM    7  C   UNL     1       2.276   0.108  -0.217  1.00  0.00     0.012 C 
HETATM    8  C   UNL     1       3.291  -0.691   0.189  1.00  0.00     0.012 C 
BRANCH   8   9
HETATM    9  C   UNL     1       4.714  -0.308   0.218  1.00  0.00    -0.036 A 
HETATM   10  C   UNL     1       5.074   1.039   0.219  1.00  0.00     0.013 A 
HETATM   11  C   UNL     1       6.421   1.402   0.247  1.00  0.00     0.030 A 
HETATM   12  C   UNL     1       7.407   0.416   0.275  1.00  0.00     0.027 A 
HETATM   13  C   UNL     1       7.048  -0.932   0.274  1.00  0.00     0.030 A 
HETATM   14  C   UNL     1       5.701  -1.294   0.247  1.00  0.00     0.013 A 
BRANCH  12  15
HETATM   15  N   UNL     1       8.769   0.782   0.303  1.00  0.00    -0.394 N 
HETATM   16  C   UNL     1       9.263   1.985  -0.294  1.00  0.00     0.146 C 
HETATM   17  H   UNL     1       9.432   0.028   0.450  1.00  0.00     0.159 HD
ENDBRANCH  12  15
ENDBRANCH   8   9
ENDBRANCH   4   7
BRANCH   1  18
HETATM   18  O   UNL     1      -3.136  -1.376  -0.396  1.00  0.00    -0.351 OA
BRANCH  18  19
HETATM   19  C   UNL     1      -4.078  -0.342  -0.641  1.00  0.00     0.175 C 
BRANCH  19  20
HETATM   20  C   UNL     1      -5.415  -0.693  -0.000  1.00  0.00     0.027 C 
BRANCH  20  21
HETATM   21  C   UNL     1      -6.475   0.386  -0.243  1.00  0.00     0.002 C 
BRANCH  21  22
HETATM   22  C   UNL     1      -7.815  -0.001   0.387  1.00  0.00     0.002 C 
BRANCH  22  23
HETATM   23  C   UNL     1      -8.881   1.058   0.117  1.00  0.00     0.031 C 
BRANCH  23  24
HETATM   24  C   UNL     1     -10.224   0.666   0.707  1.00  0.00     0.222 C 
HETATM   25  F   UNL     1     -11.116   1.660   0.453  1.00  0.00    -0.255 F 
ENDBRANCH  23  24
ENDBRANCH  22  23
ENDBRANCH  21  22
ENDBRANCH  20  21
ENDBRANCH  19  20
ENDBRANCH  18  19
ENDBRANCH   1  18
TORSDOF 10
