REMARK  9 active torsions:
REMARK  status: ('A' for Active; 'I' for Inactive)
REMARK    1  A    between atoms: S_1  and  N_9 
REMARK    2  A    between atoms: S_1  and  C_29 
REMARK    3  A    between atoms: O_4  and  C_12 
REMARK    4  A    between atoms: O_4  and  C_26 
REMARK    5  A    between atoms: O_8  and  C_31 
REMARK    6  A    between atoms: N_10  and  C_28 
REMARK       I    between atoms: N_11  and  C_26 
REMARK    7  A    between atoms: C_12  and  C_13 
REMARK    8  A    between atoms: C_17  and  C_27 
REMARK    9  A    between atoms: C_28  and  C_31 
ROOT
HETATM    1  N   UNL     1       1.223   0.449  -0.051  1.00  0.00    -0.294 N 
HETATM    2  C   UNL     1       1.572   1.875   0.284  1.00  0.00     0.132 C 
HETATM    3  C   UNL     1       2.159   2.002   1.690  1.00  0.00     0.029 C 
HETATM    4  C   UNL     1       1.177  -0.504   1.114  1.00  0.00     0.096 C 
HETATM    5  C   UNL     1       1.263   1.417   2.775  1.00  0.00     0.004 C 
HETATM    6  C   UNL     1       0.503   0.180   2.308  1.00  0.00     0.026 C 
ENDROOT
BRANCH   2   7
HETATM    7  C   UNL     1       0.372   2.757   0.070  1.00  0.00     0.094 A 
HETATM    8  C   UNL     1       0.407   3.807  -1.002  1.00  0.00     0.044 A 
HETATM    9  C   UNL     1       0.447   4.209   0.443  1.00  0.00     0.044 A 
BRANCH   7  10
HETATM   10  O   UNL     1      -0.903   2.092   0.290  1.00  0.00    -0.290 OA
BRANCH  10  11
HETATM   11  C   UNL     1      -1.445   1.407  -0.765  1.00  0.00     0.363 C 
HETATM   12  O   UNL     1      -0.903   1.337  -1.866  1.00  0.00    -0.238 OA
HETATM   13  N   UNL     1      -2.670   0.812  -0.448  1.00  0.00    -0.324 N 
HETATM   14  C   UNL     1      -3.387   0.043  -1.474  1.00  0.00     0.163 C 
HETATM   15  C   UNL     1      -3.391   1.091   0.806  1.00  0.00     0.163 C 
HETATM   16  C   UNL     1      -4.338  -1.008  -0.875  1.00  0.00     0.241 C 
HETATM   17  N   UNL     1      -5.229  -0.289   0.052  1.00  0.00     0.103 N 
HETATM   18  C   UNL     1      -3.575  -2.003   0.006  1.00  0.00     0.040 C 
HETATM   19  C   UNL     1      -4.346  -0.049   1.207  1.00  0.00     0.241 C 
HETATM   20  C   UNL     1      -3.582  -1.364   1.396  1.00  0.00     0.040 C 
BRANCH  17  21
HETATM   21  C   UNL     1      -6.423  -1.055   0.401  1.00  0.00     0.299 C 
BRANCH  21  22
HETATM   22  C   UNL     1      -7.446  -0.996  -0.722  1.00  0.00     0.194 C 
BRANCH  22  23
HETATM   23  O   UNL     1      -8.580  -1.767  -0.348  1.00  0.00    -0.399 OA
HETATM   24  H   UNL     1      -9.221  -1.704  -1.077  1.00  0.00     0.209 HD
ENDBRANCH  22  23
ENDBRANCH  21  22
ENDBRANCH  17  21
ENDBRANCH  10  11
ENDBRANCH   7  10
ENDBRANCH   2   7
BRANCH   1  25
HETATM   25  S   UNL     1       1.873  -0.133  -1.531  1.00  0.00     0.261 S 
HETATM   26  O   UNL     1       2.154   0.998  -2.380  1.00  0.00    -0.200 OA
HETATM   27  O   UNL     1       1.060  -1.236  -1.980  1.00  0.00    -0.200 OA
BRANCH  25  28
HETATM   28  C   UNL     1       3.405  -0.776  -0.944  1.00  0.00     0.082 A 
HETATM   29  C   UNL     1       4.404   0.094  -0.506  1.00  0.00     0.070 A 
HETATM   30  C   UNL     1       5.616  -0.415  -0.041  1.00  0.00     0.156 A 
HETATM   31  F   UNL     1       6.576   0.419   0.379  1.00  0.00    -0.203 F 
HETATM   32  C   UNL     1       5.830  -1.793  -0.013  1.00  0.00     0.154 A 
HETATM   33  F   UNL     1       6.994  -2.282   0.434  1.00  0.00    -0.203 F 
HETATM   34  C   UNL     1       4.830  -2.663  -0.450  1.00  0.00     0.047 A 
HETATM   35  C   UNL     1       3.618  -2.154  -0.916  1.00  0.00     0.028 A 
ENDBRANCH  25  28
ENDBRANCH   1  25
BRANCH   4  36
HETATM   36  C   UNL     1       0.389  -1.763   0.751  1.00  0.00     0.021 C 
HETATM   37  C   UNL     1       0.345  -2.740   1.909  1.00  0.00     0.007 C 
ENDBRANCH   4  36
TORSDOF 9
