REMARK  5 active torsions:
REMARK  status: ('A' for Active; 'I' for Inactive)
REMARK    1  A    between atoms: N_3  and  C_5 
REMARK    2  A    between atoms: N_3  and  C_6 
REMARK    3  A    between atoms: C_6  and  C_13 
REMARK    4  A    between atoms: C_7  and  C_14 
REMARK    5  A    between atoms: C_17  and  C_18 
ROOT
HETATM    1  C   UNL     1      -3.996   0.465   0.237  1.00  0.00     0.029 A 
HETATM    2  C   UNL     1      -1.211   0.597   0.151  1.00  0.00    -0.036 A 
HETATM    3  C   UNL     1      -3.233  -0.623   0.661  1.00  0.00     0.030 A 
HETATM    4  C   UNL     1      -3.367   1.619  -0.230  1.00  0.00     0.030 A 
HETATM    5  C   UNL     1      -1.840  -0.557   0.618  1.00  0.00     0.013 A 
HETATM    6  C   UNL     1      -1.974   1.685  -0.273  1.00  0.00     0.013 A 
ENDROOT
BRANCH   2   7
HETATM    7  C   UNL     1       0.260   0.667   0.105  1.00  0.00     0.014 C 
HETATM    8  C   UNL     1       1.134  -0.399   0.111  1.00  0.00     0.040 C 
BRANCH   8   9
HETATM    9  C   UNL     1       2.545  -0.333   0.050  1.00  0.00     0.099 A 
HETATM   10  S   UNL     1       3.419  -1.803   0.073  1.00  0.00    -0.068 SA
HETATM   11  C   UNL     1       4.894  -0.915  -0.023  1.00  0.00     0.035 A 
HETATM   12  C   UNL     1       4.604   0.452  -0.066  1.00  0.00     0.075 A 
HETATM   13  C   UNL     1       6.213  -1.395  -0.059  1.00  0.00     0.021 A 
HETATM   14  N   UNL     1       3.254   0.770  -0.023  1.00  0.00    -0.240 NA
HETATM   15  C   UNL     1       5.673   1.369  -0.146  1.00  0.00     0.033 A 
HETATM   16  C   UNL     1       6.989   0.899  -0.182  1.00  0.00     0.002 A 
HETATM   17  C   UNL     1       7.253  -0.465  -0.139  1.00  0.00     0.002 A 
ENDBRANCH   8   9
ENDBRANCH   2   7
BRANCH   1  18
HETATM   18  N   UNL     1      -5.404   0.398   0.281  1.00  0.00    -0.383 N 
HETATM   19  C   UNL     1      -6.206   1.523  -0.157  1.00  0.00     0.150 C 
BRANCH  18  20
HETATM   20  C   UNL     1      -6.068  -0.799   0.758  1.00  0.00     0.154 C 
BRANCH  20  21
HETATM   21  C   UNL     1      -6.127  -1.836  -0.346  1.00  0.00     0.241 C 
HETATM   22  F   UNL     1      -6.814  -1.320  -1.402  1.00  0.00    -0.254 F 
ENDBRANCH  20  21
ENDBRANCH  18  20
ENDBRANCH   1  18
TORSDOF 5
