REMARK  9 active torsions:
REMARK  status: ('A' for Active; 'I' for Inactive)
REMARK    1  A    between atoms: O_2  and  C_5 
REMARK    2  A    between atoms: O_2  and  C_7 
REMARK    3  A    between atoms: O_3  and  C_6 
REMARK    4  A    between atoms: O_3  and  C_11 
REMARK    5  A    between atoms: N_4  and  C_16 
REMARK    6  A    between atoms: C_5  and  C_6 
REMARK    7  A    between atoms: C_10  and  C_21 
REMARK    8  A    between atoms: C_11  and  C_15 
REMARK    9  A    between atoms: C_14  and  C_22 
ROOT
HETATM    1  C   UNL     1       2.444   0.907  -0.622  1.00  0.00     0.068 A 
HETATM    2  C   UNL     1       1.831  -0.159  -1.280  1.00  0.00     0.038 A 
HETATM    3  C   UNL     1       1.684   1.768   0.170  1.00  0.00     0.038 A 
HETATM    4  C   UNL     1      -0.302   0.495  -0.353  1.00  0.00     0.018 A 
HETATM    5  C   UNL     1       0.458  -0.365  -1.145  1.00  0.00     0.023 A 
HETATM    6  C   UNL     1       0.311   1.562   0.305  1.00  0.00     0.023 A 
ENDROOT
BRANCH   4   7
HETATM    7  C   UNL     1      -1.710   0.284  -0.215  1.00  0.00    -0.061 C 
HETATM    8  C   UNL     1      -2.892   0.107  -0.099  1.00  0.00    -0.061 C 
BRANCH   8   9
HETATM    9  C   UNL     1      -4.299  -0.103   0.038  1.00  0.00     0.018 A 
HETATM   10  C   UNL     1      -5.045  -0.560  -1.049  1.00  0.00     0.023 A 
HETATM   11  C   UNL     1      -6.418  -0.765  -0.914  1.00  0.00     0.030 A 
HETATM   12  C   UNL     1      -7.045  -0.514   0.306  1.00  0.00     0.025 A 
HETATM   13  C   UNL     1      -6.299  -0.058   1.393  1.00  0.00     0.030 A 
HETATM   14  C   UNL     1      -4.926   0.148   1.259  1.00  0.00     0.023 A 
BRANCH  12  15
HETATM   15  N   UNL     1      -8.433  -0.722   0.442  1.00  0.00    -0.399 N 
HETATM   16  H   UNL     1      -8.889  -0.540   1.326  1.00  0.00     0.156 HD
HETATM   17  H   UNL     1      -8.975  -1.053  -0.346  1.00  0.00     0.156 HD
ENDBRANCH  12  15
ENDBRANCH   8   9
ENDBRANCH   4   7
BRANCH   1  18
HETATM   18  O   UNL     1       3.784   1.108  -0.753  1.00  0.00    -0.349 OA
BRANCH  18  19
HETATM   19  C   UNL     1       4.461   1.710   0.349  1.00  0.00     0.201 C 
BRANCH  19  20
HETATM   20  C   UNL     1       5.885   1.190   0.398  1.00  0.00     0.194 C 
BRANCH  20  21
HETATM   21  O   UNL     1       5.858  -0.221   0.581  1.00  0.00    -0.387 OA
BRANCH  21  22
HETATM   22  C   UNL     1       7.169  -0.764   0.634  1.00  0.00     0.199 C 
BRANCH  22  23
HETATM   23  C   UNL     1       7.069  -2.262   0.814  1.00  0.00     0.248 C 
HETATM   24  F   UNL     1       6.414  -2.786  -0.258  1.00  0.00    -0.253 F 
ENDBRANCH  22  23
ENDBRANCH  21  22
ENDBRANCH  20  21
ENDBRANCH  19  20
ENDBRANCH  18  19
ENDBRANCH   1  18
TORSDOF 9
