REMARK  5 active torsions:
REMARK  status: ('A' for Active; 'I' for Inactive)
REMARK    1  A    between atoms: N_3  and  C_5 
REMARK    2  A    between atoms: N_3  and  C_6 
REMARK    3  A    between atoms: C_6  and  C_13 
REMARK    4  A    between atoms: C_7  and  C_14 
REMARK    5  A    between atoms: C_17  and  C_18 
ROOT
HETATM    1  C   UNL     1      -2.870   0.467  -0.057  1.00  0.00     0.029 A 
HETATM    2  C   UNL     1      -0.732   2.259  -0.052  1.00  0.00    -0.036 A 
HETATM    3  C   UNL     1      -2.744   1.399   0.974  1.00  0.00     0.030 A 
HETATM    4  C   UNL     1      -1.928   0.431  -1.085  1.00  0.00     0.030 A 
HETATM    5  C   UNL     1      -1.675   2.294   0.976  1.00  0.00     0.013 A 
HETATM    6  C   UNL     1      -0.860   1.327  -1.083  1.00  0.00     0.013 A 
ENDROOT
BRANCH   2   7
HETATM    7  C   UNL     1       0.397   3.205  -0.050  1.00  0.00     0.014 C 
HETATM    8  C   UNL     1       1.737   2.885  -0.018  1.00  0.00     0.040 C 
BRANCH   8   9
HETATM    9  C   UNL     1       2.293   1.587   0.019  1.00  0.00     0.099 A 
HETATM   10  S   UNL     1       3.825   1.349  -0.703  1.00  0.00    -0.068 SA
HETATM   11  C   UNL     1       3.764  -0.317  -0.262  1.00  0.00     0.035 A 
HETATM   12  C   UNL     1       2.564  -0.568   0.411  1.00  0.00     0.075 A 
HETATM   13  C   UNL     1       4.709  -1.329  -0.494  1.00  0.00     0.021 A 
HETATM   14  N   UNL     1       1.732   0.532   0.564  1.00  0.00    -0.240 NA
HETATM   15  C   UNL     1       2.304  -1.878   0.866  1.00  0.00     0.033 A 
HETATM   16  C   UNL     1       3.241  -2.890   0.638  1.00  0.00     0.002 A 
HETATM   17  C   UNL     1       4.427  -2.617  -0.033  1.00  0.00     0.002 A 
ENDBRANCH   8   9
ENDBRANCH   2   7
BRANCH   1  18
HETATM   18  N   UNL     1      -3.951  -0.439  -0.059  1.00  0.00    -0.383 N 
HETATM   19  C   UNL     1      -4.935  -0.410   1.005  1.00  0.00     0.150 C 
BRANCH  18  20
HETATM   20  C   UNL     1      -4.096  -1.407  -1.129  1.00  0.00     0.154 C 
BRANCH  20  21
HETATM   21  C   UNL     1      -3.345  -2.677  -0.787  1.00  0.00     0.241 C 
HETATM   22  F   UNL     1      -3.857  -3.201   0.359  1.00  0.00    -0.254 F 
ENDBRANCH  20  21
ENDBRANCH  18  20
ENDBRANCH   1  18
TORSDOF 5
