REMARK  5 active torsions:
REMARK  status: ('A' for Active; 'I' for Inactive)
REMARK    1  A    between atoms: N_2  and  C_5 
REMARK    2  A    between atoms: N_2  and  C_6 
REMARK    3  A    between atoms: C_6  and  C_18 
REMARK    4  A    between atoms: C_7  and  C_16 
REMARK    5  A    between atoms: C_12  and  C_17 
ROOT
HETATM    1  C   UNL     1      -0.267   0.536  -0.092  1.00  0.00     0.015 C 
HETATM    2  C   UNL     1      -1.294  -0.390  -0.111  1.00  0.00     0.051 C 
ENDROOT
BRANCH   1   3
HETATM    3  C   UNL     1       1.179   0.255  -0.149  1.00  0.00    -0.036 A 
HETATM    4  C   UNL     1       2.070   1.256  -0.536  1.00  0.00     0.013 A 
HETATM    5  C   UNL     1       3.438   0.989  -0.590  1.00  0.00     0.030 A 
HETATM    6  C   UNL     1       3.915  -0.279  -0.258  1.00  0.00     0.029 A 
HETATM    7  C   UNL     1       3.024  -1.280   0.129  1.00  0.00     0.030 A 
HETATM    8  C   UNL     1       1.656  -1.013   0.183  1.00  0.00     0.013 A 
BRANCH   6   9
HETATM    9  N   UNL     1       5.298  -0.548  -0.313  1.00  0.00    -0.383 N 
HETATM   10  C   UNL     1       5.804  -1.862   0.031  1.00  0.00     0.150 C 
BRANCH   9  11
HETATM   11  C   UNL     1       6.231   0.483  -0.720  1.00  0.00     0.154 C 
BRANCH  11  12
HETATM   12  C   UNL     1       6.680   1.285   0.484  1.00  0.00     0.241 C 
HETATM   13  F   UNL     1       7.294   0.453   1.368  1.00  0.00    -0.254 F 
ENDBRANCH  11  12
ENDBRANCH   9  11
ENDBRANCH   6   9
ENDBRANCH   1   3
BRANCH   2  14
HETATM   14  C   UNL     1      -2.672  -0.122  -0.040  1.00  0.00     0.128 A 
HETATM   15  N   UNL     1      -3.521  -1.193  -0.073  1.00  0.00    -0.339 N 
HETATM   16  C   UNL     1      -4.803  -0.714   0.009  1.00  0.00     0.062 A 
HETATM   17  H   UNL     1      -3.261  -2.169  -0.146  1.00  0.00     0.167 HD
HETATM   18  C   UNL     1      -4.651   0.668   0.091  1.00  0.00     0.085 A 
HETATM   19  C   UNL     1      -6.044  -1.350   0.020  1.00  0.00     0.032 A 
HETATM   20  N   UNL     1      -3.320   1.017   0.059  1.00  0.00    -0.229 NA
HETATM   21  C   UNL     1      -5.795   1.478   0.189  1.00  0.00     0.034 A 
HETATM   22  C   UNL     1      -7.052   0.861   0.202  1.00  0.00     0.002 A 
HETATM   23  C   UNL     1      -7.172  -0.529   0.118  1.00  0.00     0.002 A 
ENDBRANCH   2  14
TORSDOF 5
