REMARK  2 active torsions:
REMARK  status: ('A' for Active; 'I' for Inactive)
REMARK    1  A    between atoms: N_2  and  C_6 
REMARK    2  A    between atoms: C_5  and  C_7 
ROOT
HETATM    1  S   UNL     1       0.877  -1.409   0.103  1.00  0.00    -0.067 SA
HETATM    2  N   UNL     1       0.726   1.159  -0.083  1.00  0.00    -0.240 NA
HETATM    3  N   UNL     1       7.172  -0.929   0.066  1.00  0.00    -0.191 NA
HETATM    4  C   UNL     1       0.010   0.062  -0.004  1.00  0.00     0.109 A 
HETATM    5  C   UNL     1       2.359  -0.528   0.039  1.00  0.00     0.037 A 
HETATM    6  C   UNL     1       2.075   0.837  -0.060  1.00  0.00     0.075 A 
HETATM    7  C   UNL     1       3.677  -1.012   0.074  1.00  0.00     0.044 A 
HETATM    8  C   UNL     1       3.151   1.749  -0.126  1.00  0.00     0.034 A 
HETATM    9  C   UNL     1       4.723  -0.088   0.006  1.00  0.00     0.046 A 
HETATM   10  C   UNL     1       4.465   1.275  -0.092  1.00  0.00     0.025 A 
HETATM   11  C   UNL     1       6.075  -0.552   0.039  1.00  0.00     0.099 C 
ENDROOT
BRANCH   4  12
HETATM   12  C   UNL     1      -1.433   0.016   0.001  1.00  0.00    -0.000 A 
HETATM   13  C   UNL     1      -2.164   1.156   0.333  1.00  0.00     0.016 A 
HETATM   14  C   UNL     1      -3.558   1.112   0.335  1.00  0.00     0.030 A 
HETATM   15  C   UNL     1      -4.220  -0.071   0.006  1.00  0.00     0.029 A 
HETATM   16  C   UNL     1      -3.487  -1.211  -0.326  1.00  0.00     0.030 A 
HETATM   17  C   UNL     1      -2.092  -1.167  -0.328  1.00  0.00     0.016 A 
BRANCH  15  18
HETATM   18  N   UNL     1      -5.629  -0.116   0.009  1.00  0.00    -0.390 N 
HETATM   19  C   UNL     1      -6.402   1.072  -0.293  1.00  0.00     0.149 C 
HETATM   20  C   UNL     1      -6.324  -1.355   0.302  1.00  0.00     0.149 C 
ENDBRANCH  15  18
ENDBRANCH   4  12
TORSDOF 2
