REMARK  6 active torsions:
REMARK  status: ('A' for Active; 'I' for Inactive)
REMARK    1  A    between atoms: N_4  and  C_9 
REMARK    2  A    between atoms: N_5  and  C_26 
REMARK    3  A    between atoms: N_6  and  C_23 
REMARK    4  A    between atoms: C_9  and  C_12 
REMARK    5  A    between atoms: C_15  and  C_20 
REMARK    6  A    between atoms: C_24  and  C_25 
ROOT
HETATM    1  O   UNL     1       0.185   0.003  -1.251  1.00  0.00    -0.267 OA
HETATM    2  N   UNL     1      -1.924  -1.075  -1.121  1.00  0.00    -0.309 N 
HETATM    3  C   UNL     1      -2.412  -2.219  -0.455  1.00  0.00     0.049 A 
HETATM    4  C   UNL     1      -1.385  -2.820   0.283  1.00  0.00     0.006 A 
HETATM    5  C   UNL     1      -0.196  -2.003   0.061  1.00  0.00     0.045 A 
HETATM    6  C   UNL     1      -0.564  -0.872  -0.854  1.00  0.00     0.259 A 
HETATM    7  C   UNL     1      -3.694  -2.742  -0.470  1.00  0.00     0.030 A 
HETATM    8  C   UNL     1      -1.614  -3.963   1.027  1.00  0.00     0.015 A 
HETATM    9  C   UNL     1       1.032  -2.173   0.554  1.00  0.00     0.018 C 
HETATM   10  C   UNL     1      -3.934  -3.897   0.278  1.00  0.00     0.002 A 
HETATM   11  C   UNL     1      -2.904  -4.502   1.020  1.00  0.00     0.001 A 
ENDROOT
BRANCH   9  12
HETATM   12  C   UNL     1       2.140  -1.289   0.260  1.00  0.00     0.002 C 
HETATM   13  C   UNL     1       3.371  -1.473   0.763  1.00  0.00     0.011 C 
BRANCH  13  14
HETATM   14  C   UNL     1       4.529  -0.600   0.503  1.00  0.00    -0.036 A 
HETATM   15  C   UNL     1       4.531   0.243  -0.608  1.00  0.00     0.013 A 
HETATM   16  C   UNL     1       5.628   1.069  -0.855  1.00  0.00     0.030 A 
HETATM   17  C   UNL     1       6.722   1.052   0.010  1.00  0.00     0.029 A 
HETATM   18  C   UNL     1       6.720   0.209   1.122  1.00  0.00     0.030 A 
HETATM   19  C   UNL     1       5.623  -0.617   1.368  1.00  0.00     0.013 A 
BRANCH  17  20
HETATM   20  N   UNL     1       7.831   1.888  -0.239  1.00  0.00    -0.390 N 
HETATM   21  C   UNL     1       7.843   2.767  -1.391  1.00  0.00     0.149 C 
HETATM   22  C   UNL     1       8.969   1.883   0.658  1.00  0.00     0.149 C 
ENDBRANCH  17  20
ENDBRANCH  13  14
ENDBRANCH   9  12
BRANCH   2  23
HETATM   23  C   UNL     1      -2.744  -0.238  -1.964  1.00  0.00     0.171 C 
BRANCH  23  24
HETATM   24  C   UNL     1      -3.545   0.749  -1.167  1.00  0.00    -0.040 A 
HETATM   25  C   UNL     1      -2.896   1.677  -0.352  1.00  0.00     0.011 A 
HETATM   26  C   UNL     1      -3.640   2.595   0.389  1.00  0.00     0.037 A 
HETATM   27  C   UNL     1      -5.033   2.586   0.315  1.00  0.00     0.102 A 
HETATM   28  C   UNL     1      -5.682   1.658  -0.500  1.00  0.00     0.037 A 
HETATM   29  C   UNL     1      -4.938   0.740  -1.240  1.00  0.00     0.011 A 
BRANCH  27  30
HETATM   30  N   UNL     1      -5.790   3.521   1.069  1.00  0.00    -0.116 N 
HETATM   31  O   UNL     1      -7.043   3.495   0.988  1.00  0.00    -0.532 OA
HETATM   32  O   UNL     1      -5.188   4.347   1.796  1.00  0.00    -0.532 OA
ENDBRANCH  27  30
ENDBRANCH  23  24
ENDBRANCH   2  23
TORSDOF 6
