REMARK  5 active torsions:
REMARK  status: ('A' for Active; 'I' for Inactive)
REMARK    1  A    between atoms: O_2  and  C_16 
REMARK    2  A    between atoms: O_2  and  C_22 
REMARK    3  A    between atoms: N_3  and  C_7 
REMARK    4  A    between atoms: C_6  and  C_8 
REMARK    5  A    between atoms: C_22  and  C_23 
ROOT
HETATM    1  N   UNL     1       0.088  -0.598   0.078  1.00  0.00    -0.245 NA
HETATM    2  N   UNL     1      -1.008   1.857  -0.624  1.00  0.00    -0.256 NA
HETATM    3  C   UNL     1       0.863   0.469  -0.190  1.00  0.00     0.085 A 
HETATM    4  C   UNL     1      -1.245  -0.440  -0.005  1.00  0.00     0.086 A 
HETATM    5  C   UNL     1      -1.800   0.803  -0.360  1.00  0.00     0.087 A 
HETATM    6  C   UNL     1      -3.185   0.930  -0.436  1.00  0.00     0.070 A 
HETATM    7  C   UNL     1      -4.027  -0.148  -0.167  1.00  0.00     0.071 A 
HETATM    8  C   UNL     1       0.322   1.679  -0.536  1.00  0.00     0.149 A 
HETATM    9  C   UNL     1      -2.095  -1.510   0.262  1.00  0.00     0.037 A 
HETATM   10  C   UNL     1      -3.480  -1.373   0.183  1.00  0.00     0.039 A 
ENDROOT
BRANCH   3  11
HETATM   11  C   UNL     1       2.284   0.260  -0.091  1.00  0.00    -0.006 A 
HETATM   12  C   UNL     1       2.907  -0.693  -0.897  1.00  0.00     0.016 A 
HETATM   13  C   UNL     1       4.283  -0.896  -0.801  1.00  0.00     0.030 A 
HETATM   14  C   UNL     1       5.037  -0.146   0.101  1.00  0.00     0.029 A 
HETATM   15  C   UNL     1       4.415   0.808   0.907  1.00  0.00     0.030 A 
HETATM   16  C   UNL     1       3.039   1.010   0.811  1.00  0.00     0.016 A 
BRANCH  14  17
HETATM   17  N   UNL     1       6.429  -0.351   0.197  1.00  0.00    -0.390 N 
HETATM   18  C   UNL     1       7.223   0.423   1.131  1.00  0.00     0.149 C 
HETATM   19  C   UNL     1       7.084  -1.345  -0.630  1.00  0.00     0.149 C 
ENDBRANCH  14  17
ENDBRANCH   3  11
BRANCH   7  20
HETATM   20  O   UNL     1      -5.376   0.002  -0.248  1.00  0.00    -0.349 OA
BRANCH  20  21
HETATM   21  C   UNL     1      -6.174  -0.814   0.610  1.00  0.00     0.207 C 
BRANCH  21  22
HETATM   22  C   UNL     1      -7.454  -0.075   0.933  1.00  0.00     0.248 C 
HETATM   23  F   UNL     1      -8.131   0.146  -0.227  1.00  0.00    -0.253 F 
ENDBRANCH  21  22
ENDBRANCH  20  21
ENDBRANCH   7  20
TORSDOF 5
