REMARK  12 active torsions:
REMARK  status: ('A' for Active; 'I' for Inactive)
REMARK    1  A    between atoms: O_2  and  C_6 
REMARK    2  A    between atoms: O_2  and  C_7 
REMARK    3  A    between atoms: O_3  and  C_8 
REMARK    4  A    between atoms: O_3  and  C_10 
REMARK    5  A    between atoms: O_4  and  C_9 
REMARK    6  A    between atoms: O_4  and  C_13 
REMARK    7  A    between atoms: N_5  and  C_17 
REMARK    8  A    between atoms: C_6  and  C_8 
REMARK    9  A    between atoms: C_7  and  C_9 
REMARK   10  A    between atoms: C_13  and  C_23 
REMARK   11  A    between atoms: C_14  and  C_24 
REMARK   12  A    between atoms: C_18  and  C_25 
ROOT
HETATM    1  C   UNL     1       2.012  -1.523  -0.645  1.00  0.00     0.068 A 
HETATM    2  C   UNL     1       1.551  -0.300  -1.132  1.00  0.00     0.038 A 
HETATM    3  C   UNL     1       1.126  -2.409  -0.032  1.00  0.00     0.038 A 
HETATM    4  C   UNL     1      -0.683  -0.849  -0.392  1.00  0.00     0.018 A 
HETATM    5  C   UNL     1       0.203   0.037  -1.006  1.00  0.00     0.023 A 
HETATM    6  C   UNL     1      -0.222  -2.072   0.095  1.00  0.00     0.023 A 
ENDROOT
BRANCH   4   7
HETATM    7  C   UNL     1      -2.065  -0.504  -0.264  1.00  0.00    -0.061 C 
HETATM    8  C   UNL     1      -3.226  -0.214  -0.155  1.00  0.00    -0.061 C 
BRANCH   8   9
HETATM    9  C   UNL     1      -4.607   0.131  -0.026  1.00  0.00     0.018 A 
HETATM   10  C   UNL     1      -4.971   1.423   0.353  1.00  0.00     0.023 A 
HETATM   11  C   UNL     1      -6.319   1.759   0.478  1.00  0.00     0.030 A 
HETATM   12  C   UNL     1      -7.303   0.804   0.224  1.00  0.00     0.027 A 
HETATM   13  C   UNL     1      -6.938  -0.488  -0.155  1.00  0.00     0.030 A 
HETATM   14  C   UNL     1      -5.590  -0.825  -0.280  1.00  0.00     0.023 A 
BRANCH  12  15
HETATM   15  N   UNL     1      -8.665   1.144   0.350  1.00  0.00    -0.394 N 
HETATM   16  C   UNL     1      -9.671   0.198   0.723  1.00  0.00     0.146 C 
HETATM   17  H   UNL     1      -8.868   2.126   0.505  1.00  0.00     0.159 HD
ENDBRANCH  12  15
ENDBRANCH   8   9
ENDBRANCH   4   7
BRANCH   1  18
HETATM   18  O   UNL     1       3.327  -1.853  -0.769  1.00  0.00    -0.349 OA
BRANCH  18  19
HETATM   19  C   UNL     1       3.882  -2.701   0.235  1.00  0.00     0.201 C 
BRANCH  19  20
HETATM   20  C   UNL     1       5.360  -2.396   0.378  1.00  0.00     0.194 C 
BRANCH  20  21
HETATM   21  O   UNL     1       5.520  -1.028   0.733  1.00  0.00    -0.387 OA
BRANCH  21  22
HETATM   22  C   UNL     1       6.891  -0.685   0.881  1.00  0.00     0.193 C 
BRANCH  22  23
HETATM   23  C   UNL     1       6.997   0.786   1.235  1.00  0.00     0.193 C 
BRANCH  23  24
HETATM   24  O   UNL     1       6.434   1.559   0.182  1.00  0.00    -0.387 OA
BRANCH  24  25
HETATM   25  C   UNL     1       6.506   2.950   0.461  1.00  0.00     0.199 C 
BRANCH  25  26
HETATM   26  C   UNL     1       5.880   3.710  -0.686  1.00  0.00     0.248 C 
HETATM   27  F   UNL     1       4.572   3.344  -0.787  1.00  0.00    -0.253 F 
ENDBRANCH  25  26
ENDBRANCH  24  25
ENDBRANCH  23  24
ENDBRANCH  22  23
ENDBRANCH  21  22
ENDBRANCH  20  21
ENDBRANCH  19  20
ENDBRANCH  18  19
ENDBRANCH   1  18
TORSDOF 12
