REMARK  1 active torsions:
REMARK  status: ('A' for Active; 'I' for Inactive)
REMARK    1  A    between atoms: N_3  and  C_14 
ROOT
HETATM    1  S   UNL     1       0.936  -1.520   0.171  1.00  0.00    -0.067 SA
HETATM    2  N   UNL     1       0.764   1.039  -0.102  1.00  0.00    -0.240 NA
HETATM    3  C   UNL     1       2.410  -0.631   0.067  1.00  0.00     0.036 A 
HETATM    4  C   UNL     1       2.115   0.728  -0.077  1.00  0.00     0.075 A 
HETATM    5  C   UNL     1       0.057  -0.060   0.020  1.00  0.00     0.109 A 
HETATM    6  C   UNL     1      -1.385  -0.116   0.033  1.00  0.00    -0.000 A 
HETATM    7  C   UNL     1       4.770  -0.175   0.004  1.00  0.00    -0.061 A 
HETATM    8  C   UNL     1       3.732  -1.103   0.110  1.00  0.00     0.028 A 
HETATM    9  C   UNL     1       3.184   1.645  -0.182  1.00  0.00     0.033 A 
HETATM   10  C   UNL     1       4.502   1.182  -0.140  1.00  0.00     0.009 A 
HETATM   11  C   UNL     1      -2.124   1.028   0.331  1.00  0.00     0.016 A 
HETATM   12  C   UNL     1      -2.038  -1.315  -0.252  1.00  0.00     0.016 A 
HETATM   13  C   UNL     1      -4.172  -0.224   0.056  1.00  0.00     0.027 A 
HETATM   14  C   UNL     1      -3.518   0.974   0.342  1.00  0.00     0.030 A 
HETATM   15  C   UNL     1      -3.432  -1.369  -0.241  1.00  0.00     0.030 A 
HETATM   16  C   UNL     1       6.185  -0.648   0.047  1.00  0.00     0.048 C 
ENDROOT
BRANCH  13  17
HETATM   17  N   UNL     1      -5.581  -0.280   0.068  1.00  0.00    -0.394 N 
HETATM   18  C   UNL     1      -6.405   0.844  -0.255  1.00  0.00     0.146 C 
HETATM   19  H   UNL     1      -5.993  -1.203  -0.022  1.00  0.00     0.159 HD
ENDBRANCH  13  17
TORSDOF 1
