REMARK  5 active torsions:
REMARK  status: ('A' for Active; 'I' for Inactive)
REMARK    1  A    between atoms: N_4  and  C_8 
REMARK    2  A    between atoms: N_5  and  C_29 
REMARK    3  A    between atoms: C_8  and  C_12 
REMARK    4  A    between atoms: C_14  and  C_19 
REMARK    5  A    between atoms: C_23  and  C_24 
ROOT
HETATM    1  O   UNL     1      -0.450   0.637   0.986  1.00  0.00    -0.267 OA
HETATM    2  N   UNL     1      -2.691  -0.140   0.937  1.00  0.00    -0.309 N 
HETATM    3  C   UNL     1      -3.324  -1.309   0.465  1.00  0.00     0.049 A 
HETATM    4  C   UNL     1      -2.376  -2.177  -0.090  1.00  0.00     0.006 A 
HETATM    5  C   UNL     1      -1.086  -1.508   0.045  1.00  0.00     0.045 A 
HETATM    6  C   UNL     1      -1.308  -0.184   0.715  1.00  0.00     0.259 A 
HETATM    7  C   UNL     1      -4.669  -1.634   0.503  1.00  0.00     0.030 A 
HETATM    8  C   UNL     1      -2.751  -3.397  -0.624  1.00  0.00     0.015 A 
HETATM    9  C   UNL     1       0.117  -1.940  -0.337  1.00  0.00     0.018 C 
HETATM   10  C   UNL     1      -5.056  -2.865  -0.034  1.00  0.00     0.002 A 
HETATM   11  C   UNL     1      -4.106  -3.738  -0.592  1.00  0.00     0.001 A 
ENDROOT
BRANCH   9  12
HETATM   12  C   UNL     1       1.335  -1.181  -0.147  1.00  0.00     0.002 C 
HETATM   13  C   UNL     1       2.539  -1.627  -0.536  1.00  0.00     0.011 C 
BRANCH  13  14
HETATM   14  C   UNL     1       3.808  -0.900  -0.360  1.00  0.00    -0.036 A 
HETATM   15  C   UNL     1       3.798   0.479  -0.148  1.00  0.00     0.014 A 
HETATM   16  C   UNL     1       5.000   1.168   0.018  1.00  0.00     0.037 A 
HETATM   17  C   UNL     1       6.211   0.478  -0.029  1.00  0.00     0.102 A 
HETATM   18  C   UNL     1       6.221  -0.901  -0.241  1.00  0.00     0.037 A 
HETATM   19  C   UNL     1       5.020  -1.590  -0.406  1.00  0.00     0.014 A 
BRANCH  17  20
HETATM   20  N   UNL     1       7.435   1.179   0.139  1.00  0.00    -0.116 N 
HETATM   21  O   UNL     1       7.404   2.418   0.329  1.00  0.00    -0.532 OA
HETATM   22  O   UNL     1       8.513   0.538   0.094  1.00  0.00    -0.532 OA
ENDBRANCH  17  20
ENDBRANCH  13  14
ENDBRANCH   9  12
BRANCH   2  23
HETATM   23  C   UNL     1      -3.402   0.949   1.564  1.00  0.00     0.171 C 
BRANCH  23  24
HETATM   24  C   UNL     1      -3.901   1.947   0.559  1.00  0.00    -0.040 A 
HETATM   25  C   UNL     1      -3.099   3.028   0.192  1.00  0.00     0.009 A 
HETATM   26  C   UNL     1      -3.563   3.955  -0.742  1.00  0.00     0.001 A 
HETATM   27  C   UNL     1      -4.828   3.801  -1.308  1.00  0.00     0.000 A 
HETATM   28  C   UNL     1      -5.629   2.720  -0.942  1.00  0.00     0.001 A 
HETATM   29  C   UNL     1      -5.166   1.793  -0.008  1.00  0.00     0.009 A 
ENDBRANCH  23  24
ENDBRANCH   2  23
TORSDOF 5
