REMARK  7 active torsions:
REMARK  status: ('A' for Active; 'I' for Inactive)
REMARK    1  A    between atoms: O_2  and  C_15 
REMARK    2  A    between atoms: O_2  and  C_16 
REMARK    3  A    between atoms: O_3  and  C_20 
REMARK    4  A    between atoms: N_4  and  C_6 
REMARK    5  A    between atoms: C_9  and  C_19 
REMARK    6  A    between atoms: C_14  and  C_22 
REMARK    7  A    between atoms: C_15  and  C_20 
ROOT
HETATM    1  I   UNL     1       4.457   3.109   0.136  1.00  0.00    -0.040 I 
HETATM    2  N   UNL     1       3.460  -1.122   0.122  1.00  0.00    -0.235 NA
HETATM    3  C   UNL     1       1.365   0.083   0.082  1.00  0.00     0.037 A 
HETATM    4  C   UNL     1       4.093   0.072   0.133  1.00  0.00     0.181 A 
HETATM    5  C   UNL     1       2.052   1.292   0.094  1.00  0.00     0.044 A 
HETATM    6  C   UNL     1       3.442   1.295   0.119  1.00  0.00     0.060 A 
HETATM    7  C   UNL     1       2.109  -1.086   0.097  1.00  0.00     0.140 A 
ENDROOT
BRANCH   3   8
HETATM    8  C   UNL     1      -0.065   0.045   0.055  1.00  0.00    -0.060 C 
HETATM    9  C   UNL     1      -1.266   0.014   0.032  1.00  0.00    -0.061 C 
BRANCH   9  10
HETATM   10  C   UNL     1      -2.694  -0.022   0.005  1.00  0.00     0.018 A 
HETATM   11  C   UNL     1      -3.370   0.034  -1.213  1.00  0.00     0.023 A 
HETATM   12  C   UNL     1      -4.765  -0.002  -1.239  1.00  0.00     0.031 A 
HETATM   13  C   UNL     1      -5.482  -0.096  -0.047  1.00  0.00     0.029 A 
HETATM   14  C   UNL     1      -4.806  -0.153   1.172  1.00  0.00     0.031 A 
HETATM   15  C   UNL     1      -3.411  -0.116   1.198  1.00  0.00     0.023 A 
BRANCH  13  16
HETATM   16  N   UNL     1      -6.892  -0.133  -0.073  1.00  0.00    -0.390 N 
HETATM   17  C   UNL     1      -7.604  -0.075  -1.334  1.00  0.00     0.149 C 
HETATM   18  C   UNL     1      -7.646  -0.244   1.159  1.00  0.00     0.149 C 
ENDBRANCH  13  16
ENDBRANCH   9  10
ENDBRANCH   3   8
BRANCH   4  19
HETATM   19  O   UNL     1       5.461   0.011   0.159  1.00  0.00    -0.331 OA
BRANCH  19  20
HETATM   20  C   UNL     1       6.044  -1.287   0.171  1.00  0.00     0.203 C 
BRANCH  20  21
HETATM   21  C   UNL     1       7.554  -1.152   0.176  1.00  0.00     0.191 C 
BRANCH  21  22
HETATM   22  O   UNL     1       7.963  -0.467  -1.003  1.00  0.00    -0.399 OA
HETATM   23  H   UNL     1       8.932  -0.396  -0.969  1.00  0.00     0.209 HD
ENDBRANCH  21  22
ENDBRANCH  20  21
ENDBRANCH  19  20
ENDBRANCH   4  19
TORSDOF 7
