REMARK  9 active torsions:
REMARK  status: ('A' for Active; 'I' for Inactive)
REMARK    1  A    between atoms: O_2  and  C_6 
REMARK    2  A    between atoms: O_2  and  C_9 
REMARK    3  A    between atoms: O_3  and  C_7 
REMARK    4  A    between atoms: N_4  and  C_18 
REMARK    5  A    between atoms: C_5  and  C_6 
REMARK    6  A    between atoms: C_5  and  C_7 
REMARK    7  A    between atoms: C_5  and  C_8 
REMARK    8  A    between atoms: C_10  and  C_16 
REMARK    9  A    between atoms: C_15  and  C_17 
ROOT
HETATM    1  C   UNL     1      -2.836  -0.405  -0.074  1.00  0.00     0.068 A 
HETATM    2  C   UNL     1      -0.084  -0.069  -0.267  1.00  0.00    -0.036 A 
HETATM    3  C   UNL     1      -2.027  -0.728   1.009  1.00  0.00     0.037 A 
HETATM    4  C   UNL     1      -2.285   0.085  -1.252  1.00  0.00     0.037 A 
HETATM    5  C   UNL     1      -0.645  -0.560   0.911  1.00  0.00     0.014 A 
HETATM    6  C   UNL     1      -0.903   0.253  -1.349  1.00  0.00     0.014 A 
ENDROOT
BRANCH   2   7
HETATM    7  C   UNL     1       1.357   0.106  -0.369  1.00  0.00     0.012 C 
HETATM    8  C   UNL     1       2.274  -0.504   0.418  1.00  0.00     0.012 C 
BRANCH   8   9
HETATM    9  C   UNL     1       3.734  -0.342   0.303  1.00  0.00    -0.036 A 
HETATM   10  C   UNL     1       4.244   0.764  -0.357  1.00  0.00     0.013 A 
HETATM   11  C   UNL     1       5.626   0.917  -0.466  1.00  0.00     0.030 A 
HETATM   12  C   UNL     1       6.480  -0.038   0.087  1.00  0.00     0.027 A 
HETATM   13  C   UNL     1       5.951  -1.146   0.748  1.00  0.00     0.030 A 
HETATM   14  C   UNL     1       4.569  -1.299   0.857  1.00  0.00     0.013 A 
BRANCH  12  15
HETATM   15  N   UNL     1       7.877   0.118  -0.023  1.00  0.00    -0.394 N 
HETATM   16  C   UNL     1       8.486   1.228  -0.688  1.00  0.00     0.146 C 
HETATM   17  H   UNL     1       8.466  -0.596   0.391  1.00  0.00     0.159 HD
ENDBRANCH  12  15
ENDBRANCH   8   9
ENDBRANCH   2   7
BRANCH   1  18
HETATM   18  O   UNL     1      -4.194  -0.571   0.022  1.00  0.00    -0.351 OA
BRANCH  18  19
HETATM   19  C   UNL     1      -5.003   0.313  -0.742  1.00  0.00     0.184 C 
BRANCH  19  20
HETATM   20  C   UNL     1      -6.369   0.515  -0.073  1.00  0.00     0.062 C 
BRANCH  20  21
HETATM   21  C   UNL     1      -7.139  -0.803   0.085  1.00  0.00     0.173 C 
BRANCH  21  22
HETATM   22  O   UNL     1      -7.341  -1.402  -1.189  1.00  0.00    -0.400 OA
HETATM   23  H   UNL     1      -7.844  -0.771  -1.732  1.00  0.00     0.209 HD
ENDBRANCH  21  22
ENDBRANCH  20  21
BRANCH  20  24
HETATM   24  C   UNL     1      -6.213   1.193   1.288  1.00  0.00     0.231 C 
HETATM   25  F   UNL     1      -5.559   2.375   1.123  1.00  0.00    -0.255 F 
ENDBRANCH  20  24
ENDBRANCH  19  20
ENDBRANCH  18  19
ENDBRANCH   1  18
TORSDOF 9
