REMARK  2 active torsions:
REMARK  status: ('A' for Active; 'I' for Inactive)
REMARK    1  A    between atoms: N_6  and  C_26 
REMARK    2  A    between atoms: C_7  and  C_11 
ROOT
HETATM    1  S   UNL     1      -2.335   1.212   0.208  1.00  0.00    -0.067 SA
HETATM    2  N   UNL     1      -2.820  -1.286  -0.215  1.00  0.00    -0.240 NA
HETATM    3  C   UNL     1       1.306  -0.575  -0.103  1.00  0.00     0.001 A 
HETATM    4  C   UNL     1      -0.981   0.160   0.026  1.00  0.00     0.036 A 
HETATM    5  C   UNL     1      -1.440  -1.143  -0.194  1.00  0.00     0.075 A 
HETATM    6  C   UNL     1       0.389   0.465   0.075  1.00  0.00     0.035 A 
HETATM    7  C   UNL     1      -3.386  -0.119  -0.016  1.00  0.00     0.109 A 
HETATM    8  C   UNL     1       0.873  -1.877  -0.323  1.00  0.00     0.017 A 
HETATM    9  C   UNL     1      -0.493  -2.174  -0.371  1.00  0.00     0.034 A 
HETATM   10  C   UNL     1      -4.811   0.110   0.026  1.00  0.00    -0.000 A 
HETATM   11  C   UNL     1      -5.318   1.394  -0.174  1.00  0.00     0.016 A 
HETATM   12  C   UNL     1      -5.681  -0.954   0.266  1.00  0.00     0.016 A 
HETATM   13  C   UNL     1      -6.694   1.615  -0.134  1.00  0.00     0.030 A 
HETATM   14  C   UNL     1      -7.058  -0.733   0.306  1.00  0.00     0.030 A 
HETATM   15  C   UNL     1      -7.565   0.551   0.106  1.00  0.00     0.025 A 
ENDROOT
BRANCH   3  16
HETATM   16  C   UNL     1       2.720  -0.290  -0.057  1.00  0.00     0.109 A 
HETATM   17  S   UNL     1       3.806  -1.576   0.245  1.00  0.00    -0.067 SA
HETATM   18  C   UNL     1       5.127  -0.473   0.140  1.00  0.00     0.037 A 
HETATM   19  C   UNL     1       4.632   0.809  -0.120  1.00  0.00     0.075 A 
HETATM   20  C   UNL     1       6.502  -0.724   0.279  1.00  0.00     0.045 A 
HETATM   21  N   UNL     1       3.252   0.897  -0.230  1.00  0.00    -0.240 NA
HETATM   22  C   UNL     1       5.548   1.876  -0.245  1.00  0.00     0.035 A 
HETATM   23  C   UNL     1       6.918   1.633  -0.108  1.00  0.00     0.026 A 
HETATM   24  C   UNL     1       7.386   0.350   0.150  1.00  0.00     0.035 A 
HETATM   25 CL   UNL     1       9.080   0.076   0.315  1.00  0.00    -0.084 Cl
ENDBRANCH   3  16
BRANCH  15  26
HETATM   26  N   UNL     1      -8.956   0.775   0.147  1.00  0.00    -0.399 N 
HETATM   27  H   UNL     1      -9.588   0.004   0.320  1.00  0.00     0.156 HD
HETATM   28  H   UNL     1      -9.324   1.706   0.001  1.00  0.00     0.156 HD
ENDBRANCH  15  26
TORSDOF 2
