REMARK  10 active torsions:
REMARK  status: ('A' for Active; 'I' for Inactive)
REMARK    1  A    between atoms: S_2  and  N_8 
REMARK    2  A    between atoms: S_2  and  C_22 
REMARK    3  A    between atoms: O_3  and  C_11 
REMARK    4  A    between atoms: O_3  and  C_23 
REMARK    5  A    between atoms: O_7  and  C_35 
REMARK       I    between atoms: N_9  and  C_23 
REMARK    6  A    between atoms: N_10  and  C_33 
REMARK    7  A    between atoms: C_11  and  C_12 
REMARK    8  A    between atoms: C_13  and  C_14 
REMARK    9  A    between atoms: C_33  and  C_34 
REMARK   10  A    between atoms: C_34  and  C_35 
ROOT
HETATM    1  N   UNL     1      -2.071   0.580  -0.657  1.00  0.00    -0.294 N 
HETATM    2  C   UNL     1      -0.935   1.558  -0.777  1.00  0.00     0.132 C 
HETATM    3  C   UNL     1      -1.722  -0.882  -0.647  1.00  0.00     0.100 C 
HETATM    4  C   UNL     1       0.053   1.147  -1.869  1.00  0.00     0.029 C 
HETATM    5  C   UNL     1      -0.721  -1.228  -1.748  1.00  0.00     0.026 C 
HETATM    6  C   UNL     1       0.493  -0.308  -1.757  1.00  0.00     0.004 C 
ENDROOT
BRANCH   2   7
HETATM    7  C   UNL     1      -0.279   1.829   0.550  1.00  0.00     0.094 A 
HETATM    8  C   UNL     1      -0.365   3.201   1.151  1.00  0.00     0.044 A 
HETATM    9  C   UNL     1      -1.134   2.065   1.761  1.00  0.00     0.044 A 
BRANCH   7  10
HETATM   10  O   UNL     1       0.963   1.101   0.759  1.00  0.00    -0.290 OA
BRANCH  10  11
HETATM   11  C   UNL     1       2.131   1.812   0.677  1.00  0.00     0.363 C 
HETATM   12  O   UNL     1       2.161   3.017   0.437  1.00  0.00    -0.238 OA
HETATM   13  N   UNL     1       3.261   1.021   0.895  1.00  0.00    -0.325 N 
HETATM   14  C   UNL     1       4.597   1.608   0.849  1.00  0.00     0.158 C 
HETATM   15  C   UNL     1       3.213  -0.382   1.313  1.00  0.00     0.158 C 
HETATM   16  C   UNL     1       5.562   0.723   0.060  1.00  0.00     0.292 C 
HETATM   17  N   UNL     1       5.561  -0.650   0.587  1.00  0.00     0.091 N 
HETATM   18  C   UNL     1       4.210  -1.227   0.518  1.00  0.00     0.292 C 
BRANCH  17  19
HETATM   19  C   UNL     1       6.513  -1.482  -0.147  1.00  0.00     0.274 C 
BRANCH  19  20
HETATM   20  C   UNL     1       7.934  -1.213   0.335  1.00  0.00     0.056 C 
BRANCH  20  21
HETATM   21  C   UNL     1       8.951  -2.051  -0.427  1.00  0.00     0.165 C 
BRANCH  21  22
HETATM   22  O   UNL     1       8.859  -1.739  -1.811  1.00  0.00    -0.401 OA
HETATM   23  H   UNL     1       9.519  -2.285  -2.271  1.00  0.00     0.209 HD
ENDBRANCH  21  22
ENDBRANCH  20  21
ENDBRANCH  19  20
ENDBRANCH  17  19
ENDBRANCH  10  11
ENDBRANCH   7  10
ENDBRANCH   2   7
BRANCH   1  24
HETATM   24  S   UNL     1      -3.489   0.989  -1.543  1.00  0.00     0.261 S 
HETATM   25  O   UNL     1      -3.370   0.441  -2.871  1.00  0.00    -0.200 OA
HETATM   26  O   UNL     1      -3.775   2.384  -1.319  1.00  0.00    -0.200 OA
BRANCH  24  27
HETATM   27  C   UNL     1      -4.673   0.032  -0.655  1.00  0.00     0.079 A 
HETATM   28  C   UNL     1      -5.257  -1.085  -1.254  1.00  0.00     0.027 A 
HETATM   29  C   UNL     1      -6.194  -1.843  -0.551  1.00  0.00     0.025 A 
HETATM   30  C   UNL     1      -6.547  -1.484   0.750  1.00  0.00     0.034 A 
HETATM   31 CL   UNL     1      -7.703  -2.419   1.616  1.00  0.00    -0.084 Cl
HETATM   32  C   UNL     1      -5.964  -0.367   1.348  1.00  0.00     0.025 A 
HETATM   33  C   UNL     1      -5.027   0.391   0.645  1.00  0.00     0.027 A 
ENDBRANCH  24  27
ENDBRANCH   1  24
BRANCH   3  34
HETATM   34  C   UNL     1      -1.280  -1.330   0.743  1.00  0.00     0.009 A 
HETATM   35  C   UNL     1      -2.309  -1.502   1.821  1.00  0.00     0.007 A 
HETATM   36  C   UNL     1      -1.644  -2.705   1.219  1.00  0.00     0.007 A 
ENDBRANCH   3  34
TORSDOF 10
