REMARK  7 active torsions:
REMARK  status: ('A' for Active; 'I' for Inactive)
REMARK    1  A    between atoms: O_2  and  C_15 
REMARK    2  A    between atoms: O_2  and  C_16 
REMARK    3  A    between atoms: O_3  and  C_20 
REMARK    4  A    between atoms: N_4  and  C_6 
REMARK    5  A    between atoms: C_9  and  C_19 
REMARK    6  A    between atoms: C_14  and  C_22 
REMARK    7  A    between atoms: C_15  and  C_20 
ROOT
HETATM    1 BR   UNL     1       4.373   2.933   0.323  1.00  0.00    -0.046 Br
HETATM    2  N   UNL     1       3.465  -1.120   0.051  1.00  0.00    -0.234 NA
HETATM    3  C   UNL     1       1.367   0.083   0.087  1.00  0.00     0.037 A 
HETATM    4  C   UNL     1       4.096   0.073   0.138  1.00  0.00     0.182 A 
HETATM    5  C   UNL     1       2.052   1.289   0.176  1.00  0.00     0.045 A 
HETATM    6  C   UNL     1       3.443   1.293   0.203  1.00  0.00     0.065 A 
HETATM    7  C   UNL     1       2.114  -1.084   0.028  1.00  0.00     0.140 A 
ENDROOT
BRANCH   3   8
HETATM    8  C   UNL     1      -0.062   0.045   0.058  1.00  0.00    -0.060 C 
HETATM    9  C   UNL     1      -1.263   0.014   0.034  1.00  0.00    -0.061 C 
BRANCH   9  10
HETATM   10  C   UNL     1      -2.691  -0.022   0.004  1.00  0.00     0.018 A 
HETATM   11  C   UNL     1      -3.369   0.174  -1.198  1.00  0.00     0.023 A 
HETATM   12  C   UNL     1      -4.763   0.138  -1.227  1.00  0.00     0.031 A 
HETATM   13  C   UNL     1      -5.479  -0.094  -0.053  1.00  0.00     0.029 A 
HETATM   14  C   UNL     1      -4.801  -0.290   1.151  1.00  0.00     0.031 A 
HETATM   15  C   UNL     1      -3.407  -0.254   1.179  1.00  0.00     0.023 A 
BRANCH  13  16
HETATM   16  N   UNL     1      -6.889  -0.131  -0.083  1.00  0.00    -0.390 N 
HETATM   17  C   UNL     1      -7.602   0.070  -1.328  1.00  0.00     0.149 C 
HETATM   18  C   UNL     1      -7.642  -0.379   1.131  1.00  0.00     0.149 C 
ENDBRANCH  13  16
ENDBRANCH   9  10
ENDBRANCH   3   8
BRANCH   4  19
HETATM   19  O   UNL     1       5.465   0.021   0.161  1.00  0.00    -0.331 OA
BRANCH  19  20
HETATM   20  C   UNL     1       6.057  -1.271   0.090  1.00  0.00     0.203 C 
BRANCH  20  21
HETATM   21  C   UNL     1       7.567  -1.125   0.104  1.00  0.00     0.191 C 
BRANCH  21  22
HETATM   22  O   UNL     1       7.969  -0.364  -1.029  1.00  0.00    -0.399 OA
HETATM   23  H   UNL     1       8.938  -0.288  -0.991  1.00  0.00     0.209 HD
ENDBRANCH  21  22
ENDBRANCH  20  21
ENDBRANCH  19  20
ENDBRANCH   4  19
TORSDOF 7
