REMARK  1 active torsions:
REMARK  status: ('A' for Active; 'I' for Inactive)
REMARK    1  A    between atoms: N_4  and  C_8 
ROOT
HETATM    1  S   UNL     1       0.247   1.375  -0.034  1.00  0.00    -0.067 SA
HETATM    2  F   UNL     1      -6.224   0.258  -0.072  1.00  0.00    -0.206 F 
HETATM    3  N   UNL     1       0.022  -1.191   0.096  1.00  0.00    -0.240 NA
HETATM    4  C   UNL     1       1.702   0.452   0.035  1.00  0.00     0.038 A 
HETATM    5  C   UNL     1       1.379  -0.906   0.101  1.00  0.00     0.075 A 
HETATM    6  C   UNL     1      -0.662  -0.073   0.028  1.00  0.00     0.109 A 
HETATM    7  C   UNL     1       4.052  -0.055   0.096  1.00  0.00     0.029 A 
HETATM    8  C   UNL     1       3.033   0.899   0.031  1.00  0.00     0.050 A 
HETATM    9  C   UNL     1      -2.103   0.013   0.002  1.00  0.00    -0.000 A 
HETATM   10  C   UNL     1       2.428  -1.849   0.166  1.00  0.00     0.035 A 
HETATM   11  C   UNL     1       3.756  -1.412   0.162  1.00  0.00     0.031 A 
HETATM   12  C   UNL     1      -2.861  -1.099  -0.365  1.00  0.00     0.017 A 
HETATM   13  C   UNL     1      -2.737   1.208   0.344  1.00  0.00     0.017 A 
HETATM   14  C   UNL     1      -4.253  -1.016  -0.390  1.00  0.00     0.043 A 
HETATM   15  C   UNL     1      -4.129   1.291   0.319  1.00  0.00     0.043 A 
HETATM   16  C   UNL     1      -4.887   0.179  -0.048  1.00  0.00     0.116 A 
ENDROOT
BRANCH   7  17
HETATM   17  N   UNL     1       5.400   0.368   0.094  1.00  0.00    -0.394 N 
HETATM   18  C   UNL     1       5.838   1.558  -0.565  1.00  0.00     0.146 C 
HETATM   19  H   UNL     1       6.094  -0.352   0.270  1.00  0.00     0.159 HD
ENDBRANCH   7  17
TORSDOF 1
