REMARK  2 active torsions:
REMARK  status: ('A' for Active; 'I' for Inactive)
REMARK    1  A    between atoms: O_3  and  C_15 
REMARK    2  A    between atoms: N_6  and  C_17 
ROOT
HETATM    1  S   UNL     1       1.007  -1.387   0.750  1.00  0.00    -0.067 SA
HETATM    2  F   UNL     1      -1.494   1.846   0.941  1.00  0.00    -0.183 F 
HETATM    3  N   UNL     1       0.855   0.767  -0.659  1.00  0.00    -0.239 NA
HETATM    4  N   UNL     1      -3.439   0.754   0.402  1.00  0.00    -0.202 NA
HETATM    5  C   UNL     1       2.486  -0.610   0.325  1.00  0.00     0.038 A 
HETATM    6  C   UNL     1       2.203   0.530  -0.432  1.00  0.00     0.075 A 
HETATM    7  C   UNL     1       0.140  -0.173  -0.087  1.00  0.00     0.114 A 
HETATM    8  C   UNL     1      -1.301  -0.248  -0.117  1.00  0.00     0.058 A 
HETATM    9  C   UNL     1       3.803  -0.983   0.639  1.00  0.00     0.057 A 
HETATM   10  C   UNL     1       3.277   1.324  -0.891  1.00  0.00     0.036 A 
HETATM   11  C   UNL     1      -1.944  -1.349  -0.672  1.00  0.00     0.023 A 
HETATM   12  C   UNL     1      -2.087   0.768   0.402  1.00  0.00     0.225 A 
HETATM   13  C   UNL     1       4.848  -0.180   0.173  1.00  0.00     0.067 A 
HETATM   14  C   UNL     1       4.590   0.959  -0.582  1.00  0.00     0.039 A 
HETATM   15  C   UNL     1      -4.029  -0.332  -0.147  1.00  0.00     0.126 A 
HETATM   16  C   UNL     1      -3.333  -1.400  -0.692  1.00  0.00     0.051 A 
ENDROOT
BRANCH  13  17
HETATM   17  O   UNL     1       6.135  -0.521   0.464  1.00  0.00    -0.361 OA
HETATM   18  H   UNL     1       6.134  -1.336   0.994  1.00  0.00     0.217 HD
ENDBRANCH  13  17
BRANCH  15  19
HETATM   19  N   UNL     1      -5.444  -0.399  -0.173  1.00  0.00    -0.379 N 
HETATM   20  C   UNL     1      -6.273   0.634   0.356  1.00  0.00     0.147 C 
HETATM   21  H   UNL     1      -5.863  -1.094  -0.781  1.00  0.00     0.160 HD
ENDBRANCH  15  19
TORSDOF 2
