REMARK  2 active torsions:
REMARK  status: ('A' for Active; 'I' for Inactive)
REMARK    1  A    between atoms: O_2  and  C_15 
REMARK    2  A    between atoms: N_3  and  C_10 
ROOT
HETATM    1  S   UNL     1       0.955  -1.350  -0.173  1.00  0.00    -0.067 SA
HETATM    2  N   UNL     1       0.737   1.197   0.168  1.00  0.00    -0.240 NA
HETATM    3  N   UNL     1      -3.522   1.113  -0.269  1.00  0.00    -0.243 NA
HETATM    4  C   UNL     1       2.412  -0.437  -0.056  1.00  0.00     0.038 A 
HETATM    5  C   UNL     1       2.094   0.912   0.124  1.00  0.00     0.075 A 
HETATM    6  C   UNL     1       0.050   0.088   0.021  1.00  0.00     0.110 A 
HETATM    7  C   UNL     1      -1.392   0.005   0.014  1.00  0.00     0.017 A 
HETATM    8  C   UNL     1      -4.119  -0.074  -0.019  1.00  0.00     0.124 A 
HETATM    9  C   UNL     1      -2.042  -1.197   0.267  1.00  0.00     0.019 A 
HETATM   10  C   UNL     1       3.743  -0.883  -0.121  1.00  0.00     0.058 A 
HETATM   11  C   UNL     1       3.145   1.847   0.244  1.00  0.00     0.036 A 
HETATM   12  C   UNL     1      -3.432  -1.246   0.252  1.00  0.00     0.051 A 
HETATM   13  C   UNL     1       4.764   0.063   0.001  1.00  0.00     0.069 A 
HETATM   14  C   UNL     1      -2.170   1.122  -0.246  1.00  0.00     0.133 A 
HETATM   15  C   UNL     1       4.472   1.410   0.181  1.00  0.00     0.039 A 
ENDROOT
BRANCH  13  16
HETATM   16  O   UNL     1       6.064  -0.344  -0.059  1.00  0.00    -0.356 OA
HETATM   17  C   UNL     1       6.298  -1.738  -0.245  1.00  0.00     0.210 C 
ENDBRANCH  13  16
BRANCH   8  18
HETATM   18  N   UNL     1      -5.534  -0.141  -0.030  1.00  0.00    -0.374 N 
HETATM   19  C   UNL     1      -6.206  -1.394   0.234  1.00  0.00     0.150 C 
HETATM   20  C   UNL     1      -6.316   1.048  -0.291  1.00  0.00     0.150 C 
ENDBRANCH   8  18
TORSDOF 2
