REMARK  2 active torsions:
REMARK  status: ('A' for Active; 'I' for Inactive)
REMARK    1  A    between atoms: O_2  and  C_13 
REMARK    2  A    between atoms: N_5  and  C_16 
ROOT
HETATM    1  S   UNL     1       0.848  -1.746  -0.207  1.00  0.00    -0.067 SA
HETATM    2  N   UNL     1       0.849   0.812   0.126  1.00  0.00    -0.239 NA
HETATM    3  N   UNL     1      -3.410   1.078  -0.218  1.00  0.00    -0.243 NA
HETATM    4  C   UNL     1       2.177   0.415   0.055  1.00  0.00     0.078 A 
HETATM    5  C   UNL     1       2.379  -0.956  -0.126  1.00  0.00     0.036 A 
HETATM    6  C   UNL     1       0.070  -0.237   0.000  1.00  0.00     0.110 A 
HETATM    7  C   UNL     1      -1.373  -0.201   0.025  1.00  0.00     0.017 A 
HETATM    8  C   UNL     1       3.304   1.260   0.149  1.00  0.00     0.069 A 
HETATM    9  C   UNL     1       3.666  -1.510  -0.217  1.00  0.00     0.024 A 
HETATM   10  C   UNL     1      -2.115  -1.345   0.297  1.00  0.00     0.019 A 
HETATM   11  C   UNL     1       4.588   0.715   0.060  1.00  0.00     0.068 A 
HETATM   12  C   UNL     1      -2.062   0.976  -0.224  1.00  0.00     0.133 A 
HETATM   13  C   UNL     1       4.765  -0.652  -0.121  1.00  0.00     0.038 A 
HETATM   14  C   UNL     1      -4.098  -0.054   0.050  1.00  0.00     0.122 A 
HETATM   15  C   UNL     1      -3.504  -1.279   0.312  1.00  0.00     0.051 A 
ENDROOT
BRANCH  11  16
HETATM   16  O   UNL     1       5.675   1.532   0.152  1.00  0.00    -0.361 OA
HETATM   17  H   UNL     1       5.372   2.448   0.275  1.00  0.00     0.217 HD
ENDBRANCH  11  16
BRANCH  14  18
HETATM   18  N   UNL     1      -5.514  -0.004   0.070  1.00  0.00    -0.379 N 
HETATM   19  C   UNL     1      -6.245   1.195  -0.181  1.00  0.00     0.147 C 
HETATM   20  H   UNL     1      -6.009  -0.888   0.042  1.00  0.00     0.160 HD
ENDBRANCH  14  18
TORSDOF 2
