REMARK  3 active torsions:
REMARK  status: ('A' for Active; 'I' for Inactive)
REMARK    1  A    between atoms: O_2  and  C_16 
REMARK    2  A    between atoms: N_4  and  C_11 
REMARK    3  A    between atoms: C_5  and  C_6 
ROOT
HETATM    1  S   UNL     1       0.940  -1.523   0.171  1.00  0.00    -0.067 SA
HETATM    2  N   UNL     1       0.772   1.036  -0.102  1.00  0.00    -0.240 NA
HETATM    3  C   UNL     1       0.064  -0.063   0.019  1.00  0.00     0.109 A 
HETATM    4  C   UNL     1       2.416  -0.637   0.068  1.00  0.00     0.038 A 
HETATM    5  C   UNL     1       2.123   0.723  -0.076  1.00  0.00     0.075 A 
HETATM    6  C   UNL     1       3.737  -1.111   0.111  1.00  0.00     0.057 A 
HETATM    7  C   UNL     1       3.193   1.638  -0.181  1.00  0.00     0.036 A 
HETATM    8  C   UNL     1       4.777  -0.184   0.005  1.00  0.00     0.067 A 
HETATM    9  C   UNL     1       4.511   1.173  -0.139  1.00  0.00     0.039 A 
ENDROOT
BRANCH   3  10
HETATM   10  C   UNL     1      -1.379  -0.116   0.032  1.00  0.00    -0.000 A 
HETATM   11  C   UNL     1      -2.116   1.029   0.329  1.00  0.00     0.016 A 
HETATM   12  C   UNL     1      -3.510   0.977   0.341  1.00  0.00     0.030 A 
HETATM   13  C   UNL     1      -4.165  -0.221   0.057  1.00  0.00     0.027 A 
HETATM   14  C   UNL     1      -3.427  -1.366  -0.240  1.00  0.00     0.030 A 
HETATM   15  C   UNL     1      -2.033  -1.314  -0.252  1.00  0.00     0.016 A 
BRANCH  13  16
HETATM   16  N   UNL     1      -5.575  -0.273   0.069  1.00  0.00    -0.394 N 
HETATM   17  C   UNL     1      -6.397   0.851  -0.256  1.00  0.00     0.146 C 
HETATM   18  H   UNL     1      -5.988  -1.196  -0.020  1.00  0.00     0.159 HD
ENDBRANCH  13  16
ENDBRANCH   3  10
BRANCH   8  19
HETATM   19  O   UNL     1       6.068  -0.619   0.043  1.00  0.00    -0.361 OA
HETATM   20  H   UNL     1       6.073  -1.586   0.147  1.00  0.00     0.217 HD
ENDBRANCH   8  19
TORSDOF 3
