REMARK  4 active torsions:
REMARK  status: ('A' for Active; 'I' for Inactive)
REMARK    1  A    between atoms: O_1  and  C_12 
REMARK    2  A    between atoms: N_2  and  C_3 
REMARK    3  A    between atoms: C_4  and  C_16 
REMARK    4  A    between atoms: C_9  and  C_17 
ROOT
HETATM    1  C   UNL     1      -0.184  -0.076   0.009  1.00  0.00    -0.061 C 
HETATM    2  C   UNL     1       1.017  -0.041   0.005  1.00  0.00    -0.061 C 
ENDROOT
BRANCH   1   3
HETATM    3  C   UNL     1      -1.612  -0.118   0.015  1.00  0.00     0.018 A 
HETATM    4  C   UNL     1      -2.279  -1.256  -0.439  1.00  0.00     0.023 A 
HETATM    5  C   UNL     1      -3.673  -1.297  -0.433  1.00  0.00     0.030 A 
HETATM    6  C   UNL     1      -4.401  -0.200   0.027  1.00  0.00     0.027 A 
HETATM    7  C   UNL     1      -3.735   0.938   0.481  1.00  0.00     0.030 A 
HETATM    8  C   UNL     1      -2.340   0.979   0.475  1.00  0.00     0.023 A 
BRANCH   6   9
HETATM    9  N   UNL     1      -5.811  -0.241   0.033  1.00  0.00    -0.394 N 
HETATM   10  C   UNL     1      -6.623   0.925  -0.125  1.00  0.00     0.146 C 
HETATM   11  H   UNL     1      -6.232  -1.138  -0.188  1.00  0.00     0.159 HD
ENDBRANCH   6   9
ENDBRANCH   1   3
BRANCH   2  12
HETATM   12  C   UNL     1       2.447   0.002  -0.001  1.00  0.00     0.018 A 
HETATM   13  C   UNL     1       3.179  -1.110   0.415  1.00  0.00     0.023 A 
HETATM   14  C   UNL     1       4.573  -1.069   0.410  1.00  0.00     0.038 A 
HETATM   15  C   UNL     1       5.235   0.085  -0.011  1.00  0.00     0.065 A 
HETATM   16  C   UNL     1       4.503   1.197  -0.426  1.00  0.00     0.038 A 
HETATM   17  C   UNL     1       3.108   1.155  -0.421  1.00  0.00     0.023 A 
BRANCH  15  18
HETATM   18  O   UNL     1       6.595   0.126  -0.014  1.00  0.00    -0.361 OA
HETATM   19  H   UNL     1       6.883   0.999  -0.333  1.00  0.00     0.217 HD
ENDBRANCH  15  18
ENDBRANCH   2  12
TORSDOF 4
