REMARK  12 active torsions:
REMARK  status: ('A' for Active; 'I' for Inactive)
REMARK    1  A    between atoms: O_2  and  C_6 
REMARK    2  A    between atoms: O_2  and  C_7 
REMARK    3  A    between atoms: O_3  and  C_8 
REMARK    4  A    between atoms: O_3  and  C_10 
REMARK    5  A    between atoms: O_4  and  C_9 
REMARK    6  A    between atoms: O_4  and  C_11 
REMARK    7  A    between atoms: O_5  and  C_24 
REMARK    8  A    between atoms: C_6  and  C_8 
REMARK    9  A    between atoms: C_7  and  C_9 
REMARK   10  A    between atoms: C_11  and  C_17 
REMARK   11  A    between atoms: C_14  and  C_19 
REMARK   12  A    between atoms: C_18  and  C_25 
ROOT
HETATM    1  C   UNL     1       1.613   1.477   0.727  1.00  0.00     0.068 A 
HETATM    2  C   UNL     1       1.150   0.225   1.132  1.00  0.00     0.038 A 
HETATM    3  C   UNL     1       0.731   2.398   0.162  1.00  0.00     0.038 A 
HETATM    4  C   UNL     1      -1.078   0.814   0.405  1.00  0.00     0.018 A 
HETATM    5  C   UNL     1      -0.196  -0.106   0.971  1.00  0.00     0.023 A 
HETATM    6  C   UNL     1      -0.614   2.066   0.001  1.00  0.00     0.023 A 
ENDROOT
BRANCH   1   7
HETATM    7  O   UNL     1       2.925   1.800   0.886  1.00  0.00    -0.349 OA
BRANCH   7   8
HETATM    8  C   UNL     1       3.488   2.711  -0.058  1.00  0.00     0.201 C 
BRANCH   8   9
HETATM    9  C   UNL     1       4.969   2.418  -0.205  1.00  0.00     0.194 C 
BRANCH   9  10
HETATM   10  O   UNL     1       5.136   1.075  -0.643  1.00  0.00    -0.387 OA
BRANCH  10  11
HETATM   11  C   UNL     1       6.509   0.745  -0.798  1.00  0.00     0.193 C 
BRANCH  11  12
HETATM   12  C   UNL     1       6.623  -0.701  -1.243  1.00  0.00     0.193 C 
BRANCH  12  13
HETATM   13  O   UNL     1       6.050  -1.539  -0.247  1.00  0.00    -0.387 OA
BRANCH  13  14
HETATM   14  C   UNL     1       6.130  -2.910  -0.612  1.00  0.00     0.199 C 
BRANCH  14  15
HETATM   15  C   UNL     1       5.493  -3.742   0.479  1.00  0.00     0.248 C 
HETATM   16  F   UNL     1       4.184  -3.386   0.589  1.00  0.00    -0.253 F 
ENDBRANCH  14  15
ENDBRANCH  13  14
ENDBRANCH  12  13
ENDBRANCH  11  12
ENDBRANCH  10  11
ENDBRANCH   9  10
ENDBRANCH   8   9
ENDBRANCH   7   8
ENDBRANCH   1   7
BRANCH   4  17
HETATM   17  C   UNL     1      -2.458   0.475   0.241  1.00  0.00    -0.061 C 
HETATM   18  C   UNL     1      -3.617   0.191   0.102  1.00  0.00    -0.061 C 
BRANCH  18  19
HETATM   19  C   UNL     1      -4.995  -0.148  -0.062  1.00  0.00     0.018 A 
HETATM   20  C   UNL     1      -5.479  -1.360   0.431  1.00  0.00     0.023 A 
HETATM   21  C   UNL     1      -6.824  -1.691   0.270  1.00  0.00     0.038 A 
HETATM   22  C   UNL     1      -7.686  -0.810  -0.386  1.00  0.00     0.065 A 
HETATM   23  C   UNL     1      -7.201   0.401  -0.879  1.00  0.00     0.038 A 
HETATM   24  C   UNL     1      -5.856   0.732  -0.717  1.00  0.00     0.023 A 
BRANCH  22  25
HETATM   25  O   UNL     1      -8.998  -1.134  -0.545  1.00  0.00    -0.361 OA
HETATM   26  H   UNL     1      -9.445  -0.412  -1.019  1.00  0.00     0.217 HD
ENDBRANCH  22  25
ENDBRANCH  18  19
ENDBRANCH   4  17
TORSDOF 12
