REMARK  7 active torsions:
REMARK  status: ('A' for Active; 'I' for Inactive)
REMARK    1  A    between atoms: O_2  and  C_7 
REMARK    2  A    between atoms: O_2  and  C_8 
REMARK    3  A    between atoms: O_3  and  C_15 
REMARK    4  A    between atoms: O_3  and  C_20 
REMARK    5  A    between atoms: N_4  and  C_6 
REMARK    6  A    between atoms: C_5  and  C_7 
REMARK    7  A    between atoms: C_20  and  C_21 
ROOT
HETATM    1  C   UNL     1       0.125  -0.720   0.325  1.00  0.00     0.214 C 
ENDROOT
BRANCH   1   2
HETATM    2  O   UNL     1       0.874   0.440  -0.016  1.00  0.00    -0.347 OA
BRANCH   2   3
HETATM    3  C   UNL     1       2.238   0.311  -0.032  1.00  0.00     0.069 A 
HETATM    4  C   UNL     1       2.826  -0.916   0.277  1.00  0.00     0.039 A 
HETATM    5  C   UNL     1       4.215  -1.047   0.261  1.00  0.00     0.032 A 
HETATM    6  C   UNL     1       5.015   0.048  -0.065  1.00  0.00     0.029 A 
HETATM    7  C   UNL     1       4.427   1.274  -0.374  1.00  0.00     0.032 A 
HETATM    8  C   UNL     1       3.039   1.406  -0.357  1.00  0.00     0.039 A 
BRANCH   6   9
HETATM    9  N   UNL     1       6.419  -0.086  -0.083  1.00  0.00    -0.390 N 
HETATM   10  C   UNL     1       7.040  -1.356   0.235  1.00  0.00     0.149 C 
HETATM   11  C   UNL     1       7.259   1.044  -0.428  1.00  0.00     0.149 C 
ENDBRANCH   6   9
ENDBRANCH   2   3
ENDBRANCH   1   2
BRANCH   1  12
HETATM   12  C   UNL     1      -1.331  -0.410   0.249  1.00  0.00    -0.034 A 
HETATM   13  C   UNL     1      -2.089  -0.879  -0.824  1.00  0.00     0.012 A 
HETATM   14  C   UNL     1      -3.451  -0.589  -0.896  1.00  0.00     0.037 A 
HETATM   15  C   UNL     1      -4.056   0.170   0.106  1.00  0.00     0.068 A 
HETATM   16  C   UNL     1      -3.299   0.639   1.179  1.00  0.00     0.037 A 
HETATM   17  C   UNL     1      -1.936   0.349   1.250  1.00  0.00     0.012 A 
BRANCH  15  18
HETATM   18  O   UNL     1      -5.385   0.454   0.035  1.00  0.00    -0.349 OA
BRANCH  18  19
HETATM   19  C   UNL     1      -6.219  -0.501  -0.619  1.00  0.00     0.207 C 
BRANCH  19  20
HETATM   20  C   UNL     1      -7.602  -0.438  -0.011  1.00  0.00     0.248 C 
HETATM   21  F   UNL     1      -8.110   0.809  -0.213  1.00  0.00    -0.253 F 
ENDBRANCH  19  20
ENDBRANCH  18  19
ENDBRANCH  15  18
ENDBRANCH   1  12
TORSDOF 7
