REMARK  2 active torsions:
REMARK  status: ('A' for Active; 'I' for Inactive)
REMARK    1  A    between atoms: N_6  and  C_20 
REMARK    2  A    between atoms: C_8  and  C_12 
ROOT
HETATM    1  S   UNL     1      -1.948   1.243  -0.047  1.00  0.00    -0.067 SA
HETATM    2  N   UNL     1      -2.444  -1.286   0.070  1.00  0.00    -0.240 NA
HETATM    3  C   UNL     1      -0.599   0.171   0.002  1.00  0.00     0.036 A 
HETATM    4  C   UNL     1       1.684  -0.583   0.036  1.00  0.00     0.001 A 
HETATM    5  C   UNL     1      -1.063  -1.147   0.063  1.00  0.00     0.075 A 
HETATM    6  C   UNL     1       0.772   0.474  -0.012  1.00  0.00     0.035 A 
HETATM    7  C   UNL     1      -3.005  -0.101   0.015  1.00  0.00     0.109 A 
HETATM    8  C   UNL     1       1.246  -1.901   0.097  1.00  0.00     0.017 A 
HETATM    9  C   UNL     1      -4.429   0.137   0.005  1.00  0.00    -0.000 A 
HETATM   10  C   UNL     1      -0.120  -2.196   0.111  1.00  0.00     0.034 A 
HETATM   11  C   UNL     1      -4.930   1.352  -0.465  1.00  0.00     0.016 A 
HETATM   12  C   UNL     1      -5.305  -0.847   0.465  1.00  0.00     0.016 A 
HETATM   13  C   UNL     1      -7.181   0.598  -0.015  1.00  0.00     0.027 A 
HETATM   14  C   UNL     1      -6.306   1.582  -0.475  1.00  0.00     0.030 A 
HETATM   15  C   UNL     1      -6.680  -0.617   0.455  1.00  0.00     0.030 A 
ENDROOT
BRANCH   4  16
HETATM   16  C   UNL     1       3.100  -0.301   0.024  1.00  0.00     0.109 A 
HETATM   17  S   UNL     1       4.180  -1.544  -0.439  1.00  0.00    -0.067 SA
HETATM   18  C   UNL     1       5.505  -0.466  -0.205  1.00  0.00     0.038 A 
HETATM   19  C   UNL     1       5.017   0.775   0.213  1.00  0.00     0.075 A 
HETATM   20  C   UNL     1       6.878  -0.703  -0.380  1.00  0.00     0.063 A 
HETATM   21  N   UNL     1       3.638   0.854   0.340  1.00  0.00    -0.240 NA
HETATM   22  C   UNL     1       5.938   1.815   0.466  1.00  0.00     0.036 A 
HETATM   23  C   UNL     1       7.306   1.587   0.294  1.00  0.00     0.044 A 
HETATM   24  C   UNL     1       7.768   0.344  -0.123  1.00  0.00     0.117 A 
HETATM   25  F   UNL     1       9.084   0.145  -0.283  1.00  0.00    -0.206 F 
ENDBRANCH   4  16
BRANCH  13  26
HETATM   26  N   UNL     1      -8.572   0.830  -0.025  1.00  0.00    -0.394 N 
HETATM   27  C   UNL     1      -9.534  -0.216  -0.185  1.00  0.00     0.146 C 
HETATM   28  H   UNL     1      -8.866   1.774  -0.257  1.00  0.00     0.159 HD
ENDBRANCH  13  26
TORSDOF 2
