REMARK  4 active torsions:
REMARK  status: ('A' for Active; 'I' for Inactive)
REMARK    1  A    between atoms: O_1  and  C_4 
REMARK    2  A    between atoms: O_2  and  C_12 
REMARK    3  A    between atoms: C_3  and  C_15 
REMARK    4  A    between atoms: C_7  and  C_16 
ROOT
HETATM    1  C   UNL     1       0.196   0.081   0.003  1.00  0.00    -0.061 C 
HETATM    2  C   UNL     1      -1.005   0.043   0.001  1.00  0.00    -0.061 C 
ENDROOT
BRANCH   1   3
HETATM    3  C   UNL     1       1.625   0.126   0.005  1.00  0.00     0.018 A 
HETATM    4  C   UNL     1       2.285   1.354   0.051  1.00  0.00     0.023 A 
HETATM    5  C   UNL     1       3.679   1.398   0.053  1.00  0.00     0.038 A 
HETATM    6  C   UNL     1       4.414   0.213   0.008  1.00  0.00     0.068 A 
HETATM    7  C   UNL     1       3.755  -1.016  -0.037  1.00  0.00     0.038 A 
HETATM    8  C   UNL     1       2.360  -1.059  -0.039  1.00  0.00     0.023 A 
BRANCH   6   9
HETATM    9  O   UNL     1       5.774   0.255   0.008  1.00  0.00    -0.356 OA
HETATM   10  C   UNL     1       6.463  -0.993  -0.038  1.00  0.00     0.210 C 
ENDBRANCH   6   9
ENDBRANCH   1   3
BRANCH   2  11
HETATM   11  C   UNL     1      -2.433  -0.001  -0.001  1.00  0.00     0.018 A 
HETATM   12  C   UNL     1      -3.168   1.183  -0.057  1.00  0.00     0.023 A 
HETATM   13  C   UNL     1      -4.562   1.139  -0.058  1.00  0.00     0.038 A 
HETATM   14  C   UNL     1      -5.221  -0.089  -0.003  1.00  0.00     0.065 A 
HETATM   15  C   UNL     1      -4.487  -1.273   0.053  1.00  0.00     0.038 A 
HETATM   16  C   UNL     1      -3.092  -1.229   0.054  1.00  0.00     0.023 A 
BRANCH  14  17
HETATM   17  O   UNL     1      -6.582  -0.132  -0.003  1.00  0.00    -0.361 OA
HETATM   18  H   UNL     1      -6.868  -1.060   0.039  1.00  0.00     0.217 HD
ENDBRANCH  14  17
ENDBRANCH   2  11
TORSDOF 4
