REMARK  10 active torsions:
REMARK  status: ('A' for Active; 'I' for Inactive)
REMARK    1  A    between atoms: O_1  and  C_5 
REMARK    2  A    between atoms: O_1  and  C_7 
REMARK    3  A    between atoms: O_2  and  C_6 
REMARK    4  A    between atoms: O_2  and  C_8 
REMARK    5  A    between atoms: O_3  and  C_16 
REMARK    6  A    between atoms: N_4  and  C_12 
REMARK    7  A    between atoms: C_5  and  C_6 
REMARK    8  A    between atoms: C_8  and  C_16 
REMARK    9  A    between atoms: C_11  and  C_21 
REMARK   10  A    between atoms: C_15  and  C_22 
ROOT
HETATM    1  C   UNL     1      -2.671   0.082  -0.011  1.00  0.00     0.068 A 
HETATM    2  C   UNL     1      -1.982   1.290  -0.120  1.00  0.00     0.038 A 
HETATM    3  C   UNL     1      -1.964  -1.114   0.115  1.00  0.00     0.038 A 
HETATM    4  C   UNL     1       0.117   0.106   0.024  1.00  0.00     0.018 A 
HETATM    5  C   UNL     1      -0.588   1.303  -0.102  1.00  0.00     0.023 A 
HETATM    6  C   UNL     1      -0.570  -1.102   0.133  1.00  0.00     0.023 A 
ENDROOT
BRANCH   4   7
HETATM    7  C   UNL     1       1.548   0.119   0.041  1.00  0.00    -0.061 C 
HETATM    8  C   UNL     1       2.750   0.130   0.055  1.00  0.00    -0.061 C 
BRANCH   8   9
HETATM    9  C   UNL     1       4.179   0.143   0.072  1.00  0.00     0.018 A 
HETATM   10  C   UNL     1       4.869   1.329  -0.175  1.00  0.00     0.023 A 
HETATM   11  C   UNL     1       6.263   1.342  -0.160  1.00  0.00     0.030 A 
HETATM   12  C   UNL     1       6.968   0.168   0.104  1.00  0.00     0.027 A 
HETATM   13  C   UNL     1       6.279  -1.019   0.351  1.00  0.00     0.030 A 
HETATM   14  C   UNL     1       4.884  -1.032   0.336  1.00  0.00     0.023 A 
BRANCH  12  15
HETATM   15  N   UNL     1       8.379   0.180   0.121  1.00  0.00    -0.394 N 
HETATM   16  C   UNL     1       9.170  -0.957  -0.235  1.00  0.00     0.146 C 
HETATM   17  H   UNL     1       8.818   1.093   0.060  1.00  0.00     0.159 HD
ENDBRANCH  12  15
ENDBRANCH   8   9
ENDBRANCH   4   7
BRANCH   1  18
HETATM   18  O   UNL     1      -4.032   0.071  -0.029  1.00  0.00    -0.349 OA
BRANCH  18  19
HETATM   19  C   UNL     1      -4.665  -1.091  -0.562  1.00  0.00     0.201 C 
BRANCH  19  20
HETATM   20  C   UNL     1      -6.002  -0.696  -1.160  1.00  0.00     0.194 C 
BRANCH  20  21
HETATM   21  O   UNL     1      -6.822  -0.145  -0.137  1.00  0.00    -0.387 OA
BRANCH  21  22
HETATM   22  C   UNL     1      -8.092   0.245  -0.641  1.00  0.00     0.193 C 
BRANCH  22  23
HETATM   23  C   UNL     1      -8.919   0.822   0.491  1.00  0.00     0.190 C 
BRANCH  23  24
HETATM   24  O   UNL     1      -9.099  -0.175   1.490  1.00  0.00    -0.399 OA
HETATM   25  H   UNL     1      -9.576  -0.917   1.081  1.00  0.00     0.209 HD
ENDBRANCH  23  24
ENDBRANCH  22  23
ENDBRANCH  21  22
ENDBRANCH  20  21
ENDBRANCH  19  20
ENDBRANCH  18  19
ENDBRANCH   1  18
TORSDOF 10
