REMARK  10 active torsions:
REMARK  status: ('A' for Active; 'I' for Inactive)
REMARK    1  A    between atoms: O_2  and  C_8 
REMARK    2  A    between atoms: O_2  and  C_13 
REMARK    3  A    between atoms: O_3  and  C_14 
REMARK    4  A    between atoms: O_3  and  C_17 
REMARK    5  A    between atoms: O_4  and  C_20 
REMARK    6  A    between atoms: O_4  and  C_23 
REMARK    7  A    between atoms: N_5  and  C_7 
REMARK    8  A    between atoms: C_6  and  C_8 
REMARK    9  A    between atoms: C_17  and  C_20 
REMARK   10  A    between atoms: C_23  and  C_24 
ROOT
HETATM    1  C   UNL     1       0.249   0.463  -0.479  1.00  0.00     0.069 A 
HETATM    2  C   UNL     1       2.991   0.976  -0.449  1.00  0.00     0.069 A 
HETATM    3  C   UNL     1       0.794   1.283   0.509  1.00  0.00     0.039 A 
HETATM    4  C   UNL     1       1.075  -0.101  -1.452  1.00  0.00     0.039 A 
HETATM    5  C   UNL     1       2.165   1.539   0.524  1.00  0.00     0.039 A 
HETATM    6  C   UNL     1       2.446   0.155  -1.436  1.00  0.00     0.039 A 
ENDROOT
BRANCH   1   7
HETATM    7  O   UNL     1      -1.098   0.211  -0.494  1.00  0.00    -0.347 OA
BRANCH   7   8
HETATM    8  C   UNL     1      -1.875   0.820   0.529  1.00  0.00     0.214 C 
BRANCH   8   9
HETATM    9  C   UNL     1      -3.299   0.404   0.384  1.00  0.00    -0.034 A 
HETATM   10  C   UNL     1      -4.088   0.954  -0.627  1.00  0.00     0.011 A 
HETATM   11  C   UNL     1      -5.420   0.564  -0.762  1.00  0.00     0.030 A 
HETATM   12  C   UNL     1      -5.964  -0.377   0.113  1.00  0.00     0.029 A 
HETATM   13  C   UNL     1      -5.176  -0.926   1.124  1.00  0.00     0.030 A 
HETATM   14  C   UNL     1      -3.843  -0.536   1.259  1.00  0.00     0.011 A 
BRANCH  12  15
HETATM   15  N   UNL     1      -7.311  -0.772  -0.024  1.00  0.00    -0.390 N 
HETATM   16  C   UNL     1      -8.138  -0.207  -1.071  1.00  0.00     0.149 C 
HETATM   17  C   UNL     1      -7.883  -1.754   0.876  1.00  0.00     0.149 C 
ENDBRANCH  12  15
ENDBRANCH   8   9
ENDBRANCH   7   8
ENDBRANCH   1   7
BRANCH   2  18
HETATM   18  O   UNL     1       4.329   1.226  -0.433  1.00  0.00    -0.349 OA
BRANCH  18  19
HETATM   19  C   UNL     1       4.930   1.468   0.838  1.00  0.00     0.201 C 
BRANCH  19  20
HETATM   20  C   UNL     1       6.364   0.978   0.809  1.00  0.00     0.194 C 
BRANCH  20  21
HETATM   21  O   UNL     1       6.372  -0.420   0.547  1.00  0.00    -0.387 OA
BRANCH  21  22
HETATM   22  C   UNL     1       7.696  -0.935   0.508  1.00  0.00     0.199 C 
BRANCH  22  23
HETATM   23  C   UNL     1       7.633  -2.417   0.213  1.00  0.00     0.248 C 
HETATM   24  F   UNL     1       7.051  -2.594  -1.004  1.00  0.00    -0.253 F 
ENDBRANCH  22  23
ENDBRANCH  21  22
ENDBRANCH  20  21
ENDBRANCH  19  20
ENDBRANCH  18  19
ENDBRANCH   2  18
TORSDOF 10
