REMARK  6 active torsions:
REMARK  status: ('A' for Active; 'I' for Inactive)
REMARK    1  A    between atoms: O_2  and  C_20 
REMARK    2  A    between atoms: N_5  and  C_9 
REMARK    3  A    between atoms: N_6  and  C_30 
REMARK    4  A    between atoms: C_9  and  C_12 
REMARK    5  A    between atoms: C_15  and  C_21 
REMARK    6  A    between atoms: C_24  and  C_25 
ROOT
HETATM    1  O   UNL     1      -1.807  -2.978   0.786  1.00  0.00    -0.267 OA
HETATM    2  N   UNL     1      -2.561  -0.767   1.197  1.00  0.00    -0.309 N 
HETATM    3  C   UNL     1      -1.944   0.500   1.224  1.00  0.00     0.049 A 
HETATM    4  C   UNL     1      -0.579   0.376   0.938  1.00  0.00     0.006 A 
HETATM    5  C   UNL     1      -0.339  -1.046   0.722  1.00  0.00     0.045 A 
HETATM    6  C   UNL     1      -1.638  -1.777   0.894  1.00  0.00     0.259 A 
HETATM    7  C   UNL     1      -2.519   1.733   1.485  1.00  0.00     0.030 A 
HETATM    8  C   UNL     1       0.248   1.485   0.904  1.00  0.00     0.015 A 
HETATM    9  C   UNL     1       0.808  -1.659   0.421  1.00  0.00     0.018 C 
HETATM   10  C   UNL     1      -1.691   2.857   1.453  1.00  0.00     0.002 A 
HETATM   11  C   UNL     1      -0.320   2.735   1.165  1.00  0.00     0.001 A 
ENDROOT
BRANCH   9  12
HETATM   12  C   UNL     1       2.065  -0.961   0.253  1.00  0.00     0.002 C 
HETATM   13  C   UNL     1       3.212  -1.590  -0.050  1.00  0.00     0.011 C 
BRANCH  13  14
HETATM   14  C   UNL     1       4.518  -0.930  -0.224  1.00  0.00    -0.036 A 
HETATM   15  C   UNL     1       4.578   0.438  -0.490  1.00  0.00     0.014 A 
HETATM   16  C   UNL     1       5.814   1.062  -0.655  1.00  0.00     0.037 A 
HETATM   17  C   UNL     1       6.990   0.318  -0.555  1.00  0.00     0.102 A 
HETATM   18  C   UNL     1       6.930  -1.050  -0.289  1.00  0.00     0.037 A 
HETATM   19  C   UNL     1       5.694  -1.674  -0.123  1.00  0.00     0.014 A 
BRANCH  17  20
HETATM   20  N   UNL     1       8.249   0.953  -0.724  1.00  0.00    -0.116 N 
HETATM   21  O   UNL     1       8.282   2.184  -0.963  1.00  0.00    -0.532 OA
HETATM   22  O   UNL     1       9.294   0.265  -0.630  1.00  0.00    -0.532 OA
ENDBRANCH  17  20
ENDBRANCH  13  14
ENDBRANCH   9  12
BRANCH   2  23
HETATM   23  C   UNL     1      -3.967  -0.970   1.453  1.00  0.00     0.171 C 
BRANCH  23  24
HETATM   24  C   UNL     1      -4.804  -0.700   0.237  1.00  0.00    -0.037 A 
HETATM   25  C   UNL     1      -5.791   0.285   0.274  1.00  0.00     0.045 A 
HETATM   26  C   UNL     1      -6.569   0.535  -0.857  1.00  0.00     0.068 A 
HETATM   27  C   UNL     1      -6.361  -0.200  -2.024  1.00  0.00     0.037 A 
HETATM   28  C   UNL     1      -5.374  -1.185  -2.061  1.00  0.00     0.003 A 
HETATM   29  C   UNL     1      -4.596  -1.435  -0.930  1.00  0.00     0.009 A 
BRANCH  26  30
HETATM   30  O   UNL     1      -7.532   1.497  -0.820  1.00  0.00    -0.356 OA
HETATM   31  C   UNL     1      -8.291   1.701  -2.011  1.00  0.00     0.210 C 
ENDBRANCH  26  30
ENDBRANCH  23  24
ENDBRANCH   2  23
TORSDOF 6
