REMARK  3 active torsions:
REMARK  status: ('A' for Active; 'I' for Inactive)
REMARK    1  A    between atoms: O_2  and  C_16 
REMARK    2  A    between atoms: N_3  and  C_7 
REMARK    3  A    between atoms: C_5  and  C_6 
ROOT
HETATM    1  S   UNL     1       0.953  -1.343   0.088  1.00  0.00    -0.067 SA
HETATM    2  N   UNL     1       0.755   1.223  -0.074  1.00  0.00    -0.240 NA
HETATM    3  C   UNL     1       0.060   0.113  -0.004  1.00  0.00     0.109 A 
HETATM    4  C   UNL     1       2.418  -0.436   0.030  1.00  0.00     0.038 A 
HETATM    5  C   UNL     1       2.110   0.925  -0.057  1.00  0.00     0.075 A 
HETATM    6  C   UNL     1       3.745  -0.896   0.058  1.00  0.00     0.058 A 
HETATM    7  C   UNL     1       3.169   1.857  -0.118  1.00  0.00     0.036 A 
HETATM    8  C   UNL     1       4.774   0.047  -0.004  1.00  0.00     0.069 A 
HETATM    9  C   UNL     1       4.492   1.406  -0.090  1.00  0.00     0.039 A 
ENDROOT
BRANCH   3  10
HETATM   10  C   UNL     1      -1.382   0.041   0.001  1.00  0.00    -0.000 A 
HETATM   11  C   UNL     1      -2.134   1.164   0.343  1.00  0.00     0.016 A 
HETATM   12  C   UNL     1      -3.527   1.095   0.346  1.00  0.00     0.030 A 
HETATM   13  C   UNL     1      -4.167  -0.097   0.006  1.00  0.00     0.029 A 
HETATM   14  C   UNL     1      -3.414  -1.220  -0.336  1.00  0.00     0.030 A 
HETATM   15  C   UNL     1      -2.021  -1.151  -0.339  1.00  0.00     0.016 A 
BRANCH  13  16
HETATM   16  N   UNL     1      -5.576  -0.167   0.010  1.00  0.00    -0.390 N 
HETATM   17  C   UNL     1      -6.370   1.010  -0.282  1.00  0.00     0.149 C 
HETATM   18  C   UNL     1      -6.248  -1.420   0.291  1.00  0.00     0.149 C 
ENDBRANCH  13  16
ENDBRANCH   3  10
BRANCH   8  19
HETATM   19  O   UNL     1       6.070  -0.374   0.021  1.00  0.00    -0.356 OA
HETATM   20  C   UNL     1       6.293  -1.780   0.111  1.00  0.00     0.210 C 
ENDBRANCH   8  19
TORSDOF 3
