REMARK  12 active torsions:
REMARK  status: ('A' for Active; 'I' for Inactive)
REMARK    1  A    between atoms: O_3  and  C_8 
REMARK    2  A    between atoms: O_3  and  C_10 
REMARK    3  A    between atoms: O_4  and  C_11 
REMARK    4  A    between atoms: O_4  and  C_20 
REMARK    5  A    between atoms: O_5  and  C_12 
REMARK    6  A    between atoms: O_5  and  C_21 
REMARK    7  A    between atoms: N_6  and  C_9 
REMARK    8  A    between atoms: C_8  and  C_11 
REMARK    9  A    between atoms: C_10  and  C_12 
REMARK   10  A    between atoms: C_15  and  C_26 
REMARK   11  A    between atoms: C_20  and  C_24 
REMARK   12  A    between atoms: C_22  and  C_28 
ROOT
HETATM    1  I   UNL     1       2.675  -1.475   2.124  1.00  0.00    -0.040 I 
HETATM    2  N   UNL     1       1.278   1.862  -0.288  1.00  0.00    -0.235 NA
HETATM    3  C   UNL     1       2.019   0.974   0.412  1.00  0.00     0.181 A 
HETATM    4  C   UNL     1      -0.672   0.544   0.266  1.00  0.00     0.037 A 
HETATM    5  C   UNL     1       1.496  -0.135   1.057  1.00  0.00     0.060 A 
HETATM    6  C   UNL     1       0.124  -0.347   0.977  1.00  0.00     0.044 A 
HETATM    7  C   UNL     1      -0.052   1.623  -0.343  1.00  0.00     0.140 A 
ENDROOT
BRANCH   4   8
HETATM    8  C   UNL     1      -2.086   0.353   0.165  1.00  0.00    -0.060 C 
HETATM    9  C   UNL     1      -3.273   0.192   0.080  1.00  0.00    -0.061 C 
BRANCH   9  10
HETATM   10  C   UNL     1      -4.686   0.001  -0.021  1.00  0.00     0.018 A 
HETATM   11  C   UNL     1      -5.524   0.446   1.001  1.00  0.00     0.023 A 
HETATM   12  C   UNL     1      -6.903   0.259   0.903  1.00  0.00     0.031 A 
HETATM   13  C   UNL     1      -7.443  -0.371  -0.218  1.00  0.00     0.029 A 
HETATM   14  C   UNL     1      -6.605  -0.816  -1.240  1.00  0.00     0.031 A 
HETATM   15  C   UNL     1      -5.226  -0.629  -1.142  1.00  0.00     0.023 A 
BRANCH  13  16
HETATM   16  N   UNL     1      -8.838  -0.558  -0.317  1.00  0.00    -0.390 N 
HETATM   17  C   UNL     1      -9.717  -0.099   0.740  1.00  0.00     0.149 C 
HETATM   18  C   UNL     1      -9.411  -1.205  -1.481  1.00  0.00     0.149 C 
ENDBRANCH  13  16
ENDBRANCH   9  10
ENDBRANCH   4   8
BRANCH   3  19
HETATM   19  O   UNL     1       3.363   1.236   0.453  1.00  0.00    -0.331 OA
BRANCH  19  20
HETATM   20  C   UNL     1       3.811   2.397  -0.238  1.00  0.00     0.203 C 
BRANCH  20  21
HETATM   21  C   UNL     1       5.311   2.530  -0.060  1.00  0.00     0.194 C 
BRANCH  21  22
HETATM   22  O   UNL     1       5.945   1.366  -0.576  1.00  0.00    -0.387 OA
BRANCH  22  23
HETATM   23  C   UNL     1       7.357   1.437  -0.435  1.00  0.00     0.193 C 
BRANCH  23  24
HETATM   24  C   UNL     1       7.973   0.162  -0.978  1.00  0.00     0.193 C 
BRANCH  24  25
HETATM   25  O   UNL     1       7.484  -0.945  -0.230  1.00  0.00    -0.387 OA
BRANCH  25  26
HETATM   26  C   UNL     1       8.030  -2.171  -0.698  1.00  0.00     0.199 C 
BRANCH  26  27
HETATM   27  C   UNL     1       7.460  -3.303   0.127  1.00  0.00     0.248 C 
HETATM   28  F   UNL     1       6.109  -3.325  -0.039  1.00  0.00    -0.253 F 
ENDBRANCH  26  27
ENDBRANCH  25  26
ENDBRANCH  24  25
ENDBRANCH  23  24
ENDBRANCH  22  23
ENDBRANCH  21  22
ENDBRANCH  20  21
ENDBRANCH  19  20
ENDBRANCH   3  19
TORSDOF 12
