REMARK  6 active torsions:
REMARK  status: ('A' for Active; 'I' for Inactive)
REMARK    1  A    between atoms: O_2  and  C_20 
REMARK    2  A    between atoms: N_5  and  C_9 
REMARK    3  A    between atoms: N_6  and  C_30 
REMARK    4  A    between atoms: C_9  and  C_12 
REMARK    5  A    between atoms: C_15  and  C_21 
REMARK    6  A    between atoms: C_24  and  C_25 
ROOT
HETATM    1  O   UNL     1      -0.259   0.263  -1.182  1.00  0.00    -0.267 OA
HETATM    2  N   UNL     1      -2.472  -0.581  -1.048  1.00  0.00    -0.309 N 
HETATM    3  C   UNL     1      -3.067  -1.708  -0.444  1.00  0.00     0.049 A 
HETATM    4  C   UNL     1      -2.094  -2.471   0.213  1.00  0.00     0.006 A 
HETATM    5  C   UNL     1      -0.827  -1.778   0.004  1.00  0.00     0.045 A 
HETATM    6  C   UNL     1      -1.090  -0.550  -0.819  1.00  0.00     0.259 A 
HETATM    7  C   UNL     1      -4.400  -2.083  -0.448  1.00  0.00     0.030 A 
HETATM    8  C   UNL     1      -2.430  -3.632   0.885  1.00  0.00     0.015 A 
HETATM    9  C   UNL     1       0.388  -2.118   0.438  1.00  0.00     0.018 C 
HETATM   10  C   UNL     1      -4.747  -3.255   0.229  1.00  0.00     0.002 A 
HETATM   11  C   UNL     1      -3.772  -4.022   0.889  1.00  0.00     0.001 A 
ENDROOT
BRANCH   9  12
HETATM   12  C   UNL     1       1.580  -1.344   0.164  1.00  0.00     0.002 C 
HETATM   13  C   UNL     1       2.796  -1.699   0.608  1.00  0.00     0.011 C 
BRANCH  13  14
HETATM   14  C   UNL     1       4.038  -0.944   0.365  1.00  0.00    -0.036 A 
HETATM   15  C   UNL     1       4.103  -0.028  -0.686  1.00  0.00     0.014 A 
HETATM   16  C   UNL     1       5.279   0.686  -0.916  1.00  0.00     0.037 A 
HETATM   17  C   UNL     1       6.390   0.484  -0.096  1.00  0.00     0.102 A 
HETATM   18  C   UNL     1       6.324  -0.432   0.954  1.00  0.00     0.037 A 
HETATM   19  C   UNL     1       5.148  -1.145   1.185  1.00  0.00     0.014 A 
BRANCH  17  20
HETATM   20  N   UNL     1       7.587   1.210  -0.330  1.00  0.00    -0.116 N 
HETATM   21  O   UNL     1       7.626   2.029  -1.280  1.00  0.00    -0.532 OA
HETATM   22  O   UNL     1       8.574   1.013   0.419  1.00  0.00    -0.532 OA
ENDBRANCH  17  20
ENDBRANCH  13  14
ENDBRANCH   9  12
BRANCH   2  23
HETATM   23  C   UNL     1      -3.216   0.400  -1.802  1.00  0.00     0.171 C 
BRANCH  23  24
HETATM   24  C   UNL     1      -3.876   1.411  -0.909  1.00  0.00    -0.037 A 
HETATM   25  C   UNL     1      -3.104   2.200  -0.057  1.00  0.00     0.045 A 
HETATM   26  C   UNL     1      -3.718   3.138   0.772  1.00  0.00     0.068 A 
HETATM   27  C   UNL     1      -5.105   3.288   0.749  1.00  0.00     0.037 A 
HETATM   28  C   UNL     1      -5.877   2.499  -0.104  1.00  0.00     0.003 A 
HETATM   29  C   UNL     1      -5.263   1.561  -0.933  1.00  0.00     0.009 A 
BRANCH  26  30
HETATM   30  O   UNL     1      -2.964   3.907   1.604  1.00  0.00    -0.356 OA
HETATM   31  C   UNL     1      -1.552   3.701   1.577  1.00  0.00     0.210 C 
ENDBRANCH  26  30
ENDBRANCH  23  24
ENDBRANCH   2  23
TORSDOF 6
