REMARK  9 active torsions:
REMARK  status: ('A' for Active; 'I' for Inactive)
REMARK    1  A    between atoms: O_2  and  C_6 
REMARK    2  A    between atoms: O_2  and  C_11 
REMARK    3  A    between atoms: O_3  and  C_9 
REMARK    4  A    between atoms: O_3  and  C_21 
REMARK    5  A    between atoms: N_4  and  C_5 
REMARK    6  A    between atoms: C_6  and  C_9 
REMARK    7  A    between atoms: C_10  and  C_22 
REMARK    8  A    between atoms: C_16  and  C_23 
REMARK    9  A    between atoms: C_21  and  C_24 
ROOT
HETATM    1  C   UNL     1      -2.943   1.060   0.435  1.00  0.00     0.068 A 
HETATM    2  C   UNL     1      -0.192   0.636   0.266  1.00  0.00     0.018 A 
HETATM    3  C   UNL     1      -2.114   2.056  -0.080  1.00  0.00     0.038 A 
HETATM    4  C   UNL     1      -2.396  -0.148   0.866  1.00  0.00     0.038 A 
HETATM    5  C   UNL     1      -0.738   1.844  -0.165  1.00  0.00     0.023 A 
HETATM    6  C   UNL     1      -1.020  -0.361   0.781  1.00  0.00     0.023 A 
ENDROOT
BRANCH   2   7
HETATM    7  C   UNL     1       1.219   0.418   0.178  1.00  0.00    -0.061 C 
HETATM    8  C   UNL     1       2.405   0.235   0.104  1.00  0.00    -0.061 C 
BRANCH   8   9
HETATM    9  C   UNL     1       3.815   0.018   0.016  1.00  0.00     0.018 A 
HETATM   10  C   UNL     1       4.380  -1.131   0.570  1.00  0.00     0.023 A 
HETATM   11  C   UNL     1       5.755  -1.343   0.483  1.00  0.00     0.031 A 
HETATM   12  C   UNL     1       6.566  -0.407  -0.158  1.00  0.00     0.029 A 
HETATM   13  C   UNL     1       6.002   0.741  -0.713  1.00  0.00     0.031 A 
HETATM   14  C   UNL     1       4.626   0.954  -0.626  1.00  0.00     0.023 A 
BRANCH  12  15
HETATM   15  N   UNL     1       7.958  -0.622  -0.244  1.00  0.00    -0.390 N 
HETATM   16  C   UNL     1       8.492  -1.969  -0.282  1.00  0.00     0.149 C 
HETATM   17  C   UNL     1       8.873   0.502  -0.283  1.00  0.00     0.149 C 
ENDBRANCH  12  15
ENDBRANCH   8   9
ENDBRANCH   2   7
BRANCH   1  18
HETATM   18  O   UNL     1      -4.286   1.268   0.518  1.00  0.00    -0.349 OA
BRANCH  18  19
HETATM   19  C   UNL     1      -5.128   0.122   0.405  1.00  0.00     0.201 C 
BRANCH  19  20
HETATM   20  C   UNL     1      -6.459   0.543  -0.188  1.00  0.00     0.194 C 
BRANCH  20  21
HETATM   21  O   UNL     1      -7.291  -0.603  -0.320  1.00  0.00    -0.387 OA
BRANCH  21  22
HETATM   22  C   UNL     1      -8.556  -0.267  -0.873  1.00  0.00     0.199 C 
BRANCH  22  23
HETATM   23  C   UNL     1      -9.394  -1.522  -0.972  1.00  0.00     0.248 C 
HETATM   24  F   UNL     1      -9.574  -2.024   0.281  1.00  0.00    -0.253 F 
ENDBRANCH  22  23
ENDBRANCH  21  22
ENDBRANCH  20  21
ENDBRANCH  19  20
ENDBRANCH  18  19
ENDBRANCH   1  18
TORSDOF 9
