REMARK  3 active torsions:
REMARK  status: ('A' for Active; 'I' for Inactive)
REMARK    1  A    between atoms: O_2  and  C_16 
REMARK    2  A    between atoms: N_4  and  C_11 
REMARK    3  A    between atoms: C_5  and  C_6 
ROOT
HETATM    1  S   UNL     1       0.758  -1.665   0.256  1.00  0.00    -0.068 SA
HETATM    2  N   UNL     1       0.920   0.886  -0.091  1.00  0.00    -0.239 NA
HETATM    3  C   UNL     1       0.076  -0.108   0.064  1.00  0.00     0.109 A 
HETATM    4  C   UNL     1       2.220   0.402  -0.060  1.00  0.00     0.078 A 
HETATM    5  C   UNL     1       2.335  -0.980   0.123  1.00  0.00     0.036 A 
HETATM    6  C   UNL     1       3.398   1.168  -0.194  1.00  0.00     0.069 A 
HETATM    7  C   UNL     1       3.584  -1.619   0.176  1.00  0.00     0.024 A 
HETATM    8  C   UNL     1       4.644   0.539  -0.141  1.00  0.00     0.068 A 
HETATM    9  C   UNL     1       4.734  -0.837   0.041  1.00  0.00     0.038 A 
ENDROOT
BRANCH   3  10
HETATM   10  C   UNL     1      -1.361   0.025   0.084  1.00  0.00    -0.000 A 
HETATM   11  C   UNL     1      -2.168  -1.086  -0.163  1.00  0.00     0.016 A 
HETATM   12  C   UNL     1      -3.556  -0.958  -0.145  1.00  0.00     0.030 A 
HETATM   13  C   UNL     1      -4.138   0.282   0.121  1.00  0.00     0.027 A 
HETATM   14  C   UNL     1      -3.332   1.393   0.368  1.00  0.00     0.030 A 
HETATM   15  C   UNL     1      -1.943   1.265   0.349  1.00  0.00     0.016 A 
BRANCH  13  16
HETATM   16  N   UNL     1      -5.543   0.412   0.140  1.00  0.00    -0.394 N 
HETATM   17  C   UNL     1      -6.409  -0.401  -0.657  1.00  0.00     0.146 C 
HETATM   18  H   UNL     1      -5.905   1.304   0.463  1.00  0.00     0.159 HD
ENDBRANCH  13  16
ENDBRANCH   3  10
BRANCH   8  19
HETATM   19  O   UNL     1       5.780   1.281  -0.271  1.00  0.00    -0.361 OA
HETATM   20  H   UNL     1       5.535   2.215  -0.390  1.00  0.00     0.217 HD
ENDBRANCH   8  19
TORSDOF 3
