REMARK  12 active torsions:
REMARK  status: ('A' for Active; 'I' for Inactive)
REMARK    1  A    between atoms: O_3  and  C_8 
REMARK    2  A    between atoms: O_3  and  C_10 
REMARK    3  A    between atoms: O_4  and  C_11 
REMARK    4  A    between atoms: O_4  and  C_20 
REMARK    5  A    between atoms: O_5  and  C_12 
REMARK    6  A    between atoms: O_5  and  C_21 
REMARK    7  A    between atoms: N_6  and  C_9 
REMARK    8  A    between atoms: C_8  and  C_11 
REMARK    9  A    between atoms: C_10  and  C_12 
REMARK   10  A    between atoms: C_15  and  C_26 
REMARK   11  A    between atoms: C_20  and  C_24 
REMARK   12  A    between atoms: C_22  and  C_28 
ROOT
HETATM    1 BR   UNL     1       2.583  -1.324   2.029  1.00  0.00    -0.046 Br
HETATM    2  N   UNL     1       1.280   1.862  -0.311  1.00  0.00    -0.234 NA
HETATM    3  C   UNL     1       2.023   0.981   0.397  1.00  0.00     0.182 A 
HETATM    4  C   UNL     1      -0.668   0.548   0.256  1.00  0.00     0.037 A 
HETATM    5  C   UNL     1       1.501  -0.123   1.052  1.00  0.00     0.065 A 
HETATM    6  C   UNL     1       0.129  -0.337   0.975  1.00  0.00     0.045 A 
HETATM    7  C   UNL     1      -0.049   1.622  -0.363  1.00  0.00     0.140 A 
ENDROOT
BRANCH   4   8
HETATM    8  C   UNL     1      -2.082   0.355   0.159  1.00  0.00    -0.060 C 
HETATM    9  C   UNL     1      -3.269   0.193   0.077  1.00  0.00    -0.061 C 
BRANCH   9  10
HETATM   10  C   UNL     1      -4.682   0.000  -0.020  1.00  0.00     0.018 A 
HETATM   11  C   UNL     1      -5.519   0.453   0.999  1.00  0.00     0.023 A 
HETATM   12  C   UNL     1      -6.898   0.265   0.904  1.00  0.00     0.031 A 
HETATM   13  C   UNL     1      -7.439  -0.376  -0.210  1.00  0.00     0.029 A 
HETATM   14  C   UNL     1      -6.602  -0.829  -1.230  1.00  0.00     0.031 A 
HETATM   15  C   UNL     1      -5.223  -0.641  -1.135  1.00  0.00     0.023 A 
BRANCH  13  16
HETATM   16  N   UNL     1      -8.834  -0.565  -0.306  1.00  0.00    -0.390 N 
HETATM   17  C   UNL     1      -9.712  -0.097   0.748  1.00  0.00     0.149 C 
HETATM   18  C   UNL     1      -9.408  -1.223  -1.463  1.00  0.00     0.149 C 
ENDBRANCH  13  16
ENDBRANCH   9  10
ENDBRANCH   4   8
BRANCH   3  19
HETATM   19  O   UNL     1       3.368   1.238   0.441  1.00  0.00    -0.331 OA
BRANCH  19  20
HETATM   20  C   UNL     1       3.822   2.391  -0.257  1.00  0.00     0.203 C 
BRANCH  20  21
HETATM   21  C   UNL     1       5.322   2.521  -0.075  1.00  0.00     0.194 C 
BRANCH  21  22
HETATM   22  O   UNL     1       5.954   1.350  -0.578  1.00  0.00    -0.387 OA
BRANCH  22  23
HETATM   23  C   UNL     1       7.366   1.417  -0.432  1.00  0.00     0.193 C 
BRANCH  23  24
HETATM   24  C   UNL     1       7.979   0.135  -0.962  1.00  0.00     0.193 C 
BRANCH  24  25
HETATM   25  O   UNL     1       7.483  -0.964  -0.206  1.00  0.00    -0.387 OA
BRANCH  25  26
HETATM   26  C   UNL     1       8.026  -2.196  -0.661  1.00  0.00     0.199 C 
BRANCH  26  27
HETATM   27  C   UNL     1       7.449  -3.319   0.171  1.00  0.00     0.248 C 
HETATM   28  F   UNL     1       6.099  -3.337  -0.000  1.00  0.00    -0.253 F 
ENDBRANCH  26  27
ENDBRANCH  25  26
ENDBRANCH  24  25
ENDBRANCH  23  24
ENDBRANCH  22  23
ENDBRANCH  21  22
ENDBRANCH  20  21
ENDBRANCH  19  20
ENDBRANCH   3  19
TORSDOF 12
