REMARK  6 active torsions:
REMARK  status: ('A' for Active; 'I' for Inactive)
REMARK    1  A    between atoms: N_2  and  C_7 
REMARK    2  A    between atoms: N_3  and  C_24 
REMARK    3  A    between atoms: N_4  and  C_21 
REMARK    4  A    between atoms: C_7  and  C_10 
REMARK    5  A    between atoms: C_13  and  C_18 
REMARK    6  A    between atoms: C_22  and  C_23 
ROOT
HETATM    1  O   UNL     1      -0.225   0.428  -1.108  1.00  0.00    -0.267 OA
HETATM    2  N   UNL     1      -2.429  -0.447  -1.028  1.00  0.00    -0.309 N 
HETATM    3  C   UNL     1      -3.012  -1.612  -0.487  1.00  0.00     0.049 A 
HETATM    4  C   UNL     1      -2.032  -2.397   0.132  1.00  0.00     0.006 A 
HETATM    5  C   UNL     1      -0.774  -1.679  -0.035  1.00  0.00     0.045 A 
HETATM    6  C   UNL     1      -1.048  -0.413  -0.792  1.00  0.00     0.259 A 
HETATM    7  C   UNL     1      -4.341  -2.002  -0.516  1.00  0.00     0.030 A 
HETATM    8  C   UNL     1      -2.357  -3.597   0.740  1.00  0.00     0.015 A 
HETATM    9  C   UNL     1       0.444  -2.029   0.385  1.00  0.00     0.018 C 
HETATM   10  C   UNL     1      -4.677  -3.212   0.096  1.00  0.00     0.002 A 
HETATM   11  C   UNL     1      -3.695  -4.002   0.718  1.00  0.00     0.001 A 
ENDROOT
BRANCH   9  12
HETATM   12  C   UNL     1       1.627  -1.228   0.158  1.00  0.00     0.002 C 
HETATM   13  C   UNL     1       2.846  -1.591   0.586  1.00  0.00     0.011 C 
BRANCH  13  14
HETATM   14  C   UNL     1       4.080  -0.811   0.389  1.00  0.00    -0.036 A 
HETATM   15  C   UNL     1       4.138   0.161  -0.611  1.00  0.00     0.013 A 
HETATM   16  C   UNL     1       5.306   0.900  -0.798  1.00  0.00     0.030 A 
HETATM   17  C   UNL     1       6.416   0.668   0.015  1.00  0.00     0.029 A 
HETATM   18  C   UNL     1       6.357  -0.302   1.015  1.00  0.00     0.030 A 
HETATM   19  C   UNL     1       5.189  -1.042   1.202  1.00  0.00     0.013 A 
BRANCH  17  20
HETATM   20  N   UNL     1       7.596   1.416  -0.174  1.00  0.00    -0.390 N 
HETATM   21  C   UNL     1       8.752   1.189   0.671  1.00  0.00     0.149 C 
HETATM   22  C   UNL     1       7.667   2.427  -1.210  1.00  0.00     0.149 C 
ENDBRANCH  17  20
ENDBRANCH  13  14
ENDBRANCH   9  12
BRANCH   2  23
HETATM   23  C   UNL     1      -3.182   0.564  -1.730  1.00  0.00     0.171 C 
BRANCH  23  24
HETATM   24  C   UNL     1      -3.857   1.518  -0.788  1.00  0.00    -0.040 A 
HETATM   25  C   UNL     1      -3.096   2.269   0.109  1.00  0.00     0.011 A 
HETATM   26  C   UNL     1      -3.723   3.155   0.985  1.00  0.00     0.029 A 
HETATM   27  C   UNL     1      -5.111   3.290   0.965  1.00  0.00     0.025 A 
HETATM   28  C   UNL     1      -5.872   2.540   0.068  1.00  0.00     0.029 A 
HETATM   29  C   UNL     1      -5.245   1.654  -0.808  1.00  0.00     0.011 A 
BRANCH  27  30
HETATM   30  N   UNL     1      -5.745   4.186   1.851  1.00  0.00    -0.399 N 
HETATM   31  H   UNL     1      -6.751   4.285   1.836  1.00  0.00     0.156 HD
HETATM   32  H   UNL     1      -5.193   4.730   2.500  1.00  0.00     0.156 HD
ENDBRANCH  27  30
ENDBRANCH  23  24
ENDBRANCH   2  23
TORSDOF 6
