REMARK  2 active torsions:
REMARK  status: ('A' for Active; 'I' for Inactive)
REMARK    1  A    between atoms: N_5  and  C_19 
REMARK    2  A    between atoms: C_7  and  C_11 
ROOT
HETATM    1  S   UNL     1      -1.611   1.217  -0.126  1.00  0.00    -0.067 SA
HETATM    2  N   UNL     1      -2.086  -1.315   0.000  1.00  0.00    -0.240 NA
HETATM    3  C   UNL     1      -0.253   0.157  -0.057  1.00  0.00     0.036 A 
HETATM    4  C   UNL     1       2.036  -0.577   0.004  1.00  0.00     0.001 A 
HETATM    5  C   UNL     1      -0.707  -1.164   0.007  1.00  0.00     0.075 A 
HETATM    6  C   UNL     1       1.115   0.472  -0.059  1.00  0.00     0.035 A 
HETATM    7  C   UNL     1      -2.657  -0.135  -0.067  1.00  0.00     0.109 A 
HETATM    8  C   UNL     1      -4.083   0.091  -0.093  1.00  0.00    -0.000 A 
HETATM    9  C   UNL     1       1.609  -1.898   0.068  1.00  0.00     0.017 A 
HETATM   10  C   UNL     1       0.245  -2.205   0.070  1.00  0.00     0.034 A 
HETATM   11  C   UNL     1      -4.590   1.298  -0.575  1.00  0.00     0.016 A 
HETATM   12  C   UNL     1      -4.954  -0.899   0.363  1.00  0.00     0.016 A 
HETATM   13  C   UNL     1      -6.838   0.526  -0.145  1.00  0.00     0.027 A 
HETATM   14  C   UNL     1      -5.967   1.516  -0.601  1.00  0.00     0.030 A 
HETATM   15  C   UNL     1      -6.332  -0.681   0.337  1.00  0.00     0.030 A 
ENDROOT
BRANCH   4  16
HETATM   16  C   UNL     1       3.449  -0.282   0.004  1.00  0.00     0.109 A 
HETATM   17  S   UNL     1       4.545  -1.520  -0.434  1.00  0.00    -0.068 SA
HETATM   18  C   UNL     1       5.859  -0.431  -0.190  1.00  0.00     0.035 A 
HETATM   19  C   UNL     1       5.355   0.810   0.212  1.00  0.00     0.075 A 
HETATM   20  C   UNL     1       7.236  -0.657  -0.344  1.00  0.00     0.021 A 
HETATM   21  N   UNL     1       3.974   0.879   0.319  1.00  0.00    -0.240 NA
HETATM   22  C   UNL     1       6.264   1.859   0.469  1.00  0.00     0.033 A 
HETATM   23  C   UNL     1       7.636   1.640   0.318  1.00  0.00     0.002 A 
HETATM   24  C   UNL     1       8.114   0.398  -0.083  1.00  0.00     0.002 A 
ENDBRANCH   4  16
BRANCH  13  25
HETATM   25  N   UNL     1      -8.231   0.747  -0.170  1.00  0.00    -0.394 N 
HETATM   26  C   UNL     1      -9.129   0.154   0.772  1.00  0.00     0.146 C 
HETATM   27  H   UNL     1      -8.541   1.587  -0.647  1.00  0.00     0.159 HD
ENDBRANCH  13  25
TORSDOF 2
