REMARK  2 active torsions:
REMARK  status: ('A' for Active; 'I' for Inactive)
REMARK    1  A    between atoms: O_2  and  C_13 
REMARK    2  A    between atoms: N_5  and  C_16 
ROOT
HETATM    1  S   UNL     1       0.822   1.433  -0.223  1.00  0.00    -0.067 SA
HETATM    2  N   UNL     1       0.843  -1.121   0.139  1.00  0.00    -0.240 NA
HETATM    3  N   UNL     1      -3.498   1.018   0.212  1.00  0.00    -0.243 NA
HETATM    4  C   UNL     1       2.359   0.662  -0.092  1.00  0.00     0.038 A 
HETATM    5  C   UNL     1       2.167  -0.710   0.100  1.00  0.00     0.075 A 
HETATM    6  C   UNL     1       0.056  -0.083  -0.019  1.00  0.00     0.110 A 
HETATM    7  C   UNL     1      -1.387  -0.135  -0.032  1.00  0.00     0.017 A 
HETATM    8  C   UNL     1       3.642   1.230  -0.154  1.00  0.00     0.057 A 
HETATM    9  C   UNL     1       3.301  -1.540   0.234  1.00  0.00     0.036 A 
HETATM   10  C   UNL     1      -2.059  -1.327  -0.284  1.00  0.00     0.019 A 
HETATM   11  C   UNL     1       4.747   0.386  -0.018  1.00  0.00     0.067 A 
HETATM   12  C   UNL     1      -2.146   0.999   0.208  1.00  0.00     0.133 A 
HETATM   13  C   UNL     1       4.581  -0.981   0.174  1.00  0.00     0.039 A 
HETATM   14  C   UNL     1      -4.116  -0.159  -0.038  1.00  0.00     0.122 A 
HETATM   15  C   UNL     1      -3.449  -1.347  -0.289  1.00  0.00     0.051 A 
ENDROOT
BRANCH  11  16
HETATM   16  O   UNL     1       6.003   0.913  -0.073  1.00  0.00    -0.361 OA
HETATM   17  H   UNL     1       5.936   1.874  -0.210  1.00  0.00     0.217 HD
ENDBRANCH  11  16
BRANCH  14  18
HETATM   18  N   UNL     1      -5.532  -0.196  -0.046  1.00  0.00    -0.379 N 
HETATM   19  C   UNL     1      -6.335   0.958   0.200  1.00  0.00     0.147 C 
HETATM   20  H   UNL     1      -5.971  -1.014  -0.456  1.00  0.00     0.160 HD
ENDBRANCH  14  18
TORSDOF 2
