REMARK  2 active torsions:
REMARK  status: ('A' for Active; 'I' for Inactive)
REMARK    1  A    between atoms: N_3  and  C_11 
REMARK    2  A    between atoms: C_5  and  C_6 
ROOT
HETATM    1  S   UNL     1       0.580  -1.438  -0.173  1.00  0.00    -0.067 SA
HETATM    2  N   UNL     1       0.370   1.105   0.201  1.00  0.00    -0.240 NA
HETATM    3  N   UNL     1       6.863  -0.803  -0.220  1.00  0.00    -0.191 NA
HETATM    4  C   UNL     1      -0.320  -0.002   0.055  1.00  0.00     0.109 A 
HETATM    5  C   UNL     1       2.040  -0.528  -0.073  1.00  0.00     0.037 A 
HETATM    6  C   UNL     1       1.726   0.820   0.130  1.00  0.00     0.075 A 
HETATM    7  C   UNL     1       3.369  -0.973  -0.167  1.00  0.00     0.044 A 
HETATM    8  C   UNL     1       2.780   1.752   0.242  1.00  0.00     0.034 A 
HETATM    9  C   UNL     1       4.393  -0.030  -0.053  1.00  0.00     0.046 A 
HETATM   10  C   UNL     1       4.105   1.315   0.149  1.00  0.00     0.025 A 
HETATM   11  C   UNL     1       5.755  -0.456  -0.145  1.00  0.00     0.099 C 
ENDROOT
BRANCH   4  12
HETATM   12  C   UNL     1      -1.761  -0.084   0.075  1.00  0.00    -0.000 A 
HETATM   13  C   UNL     1      -2.526   1.058  -0.160  1.00  0.00     0.016 A 
HETATM   14  C   UNL     1      -3.919   0.980  -0.140  1.00  0.00     0.030 A 
HETATM   15  C   UNL     1      -4.545  -0.240   0.115  1.00  0.00     0.027 A 
HETATM   16  C   UNL     1      -3.779  -1.382   0.350  1.00  0.00     0.030 A 
HETATM   17  C   UNL     1      -2.386  -1.304   0.330  1.00  0.00     0.016 A 
BRANCH  15  18
HETATM   18  N   UNL     1      -5.953  -0.320   0.135  1.00  0.00    -0.394 N 
HETATM   19  C   UNL     1      -6.790   0.532  -0.653  1.00  0.00     0.146 C 
HETATM   20  H   UNL     1      -6.347  -1.201   0.449  1.00  0.00     0.159 HD
ENDBRANCH  15  18
ENDBRANCH   4  12
TORSDOF 2
