REMARK  9 active torsions:
REMARK  status: ('A' for Active; 'I' for Inactive)
REMARK    1  A    between atoms: S_2  and  N_8 
REMARK    2  A    between atoms: S_2  and  C_21 
REMARK    3  A    between atoms: O_3  and  C_11 
REMARK    4  A    between atoms: O_3  and  C_20 
REMARK    5  A    between atoms: O_7  and  C_33 
REMARK       I    between atoms: N_9  and  C_20 
REMARK    6  A    between atoms: N_10  and  C_31 
REMARK    7  A    between atoms: C_11  and  C_12 
REMARK    8  A    between atoms: C_16  and  C_19 
REMARK    9  A    between atoms: C_31  and  C_33 
ROOT
HETATM    1  N   UNL     1      -1.063  -0.707  -0.249  1.00  0.00    -0.294 N 
HETATM    2  C   UNL     1      -1.387   0.390  -1.231  1.00  0.00     0.132 C 
HETATM    3  C   UNL     1      -0.918  -0.029  -2.631  1.00  0.00     0.029 C 
HETATM    4  C   UNL     1      -1.315  -2.112  -0.728  1.00  0.00     0.096 C 
HETATM    5  C   UNL     1      -1.610  -1.295  -3.126  1.00  0.00     0.004 C 
HETATM    6  C   UNL     1      -2.177  -2.138  -1.990  1.00  0.00     0.026 C 
ENDROOT
BRANCH   2   7
HETATM    7  C   UNL     1      -0.720   1.688  -0.849  1.00  0.00     0.094 A 
HETATM    8  C   UNL     1      -0.935   2.907  -1.698  1.00  0.00     0.044 A 
HETATM    9  C   UNL     1      -1.556   2.823  -0.335  1.00  0.00     0.044 A 
BRANCH   7  10
HETATM   10  O   UNL     1       0.599   1.529  -0.257  1.00  0.00    -0.290 OA
BRANCH  10  11
HETATM   11  C   UNL     1       1.666   1.442  -1.111  1.00  0.00     0.363 C 
HETATM   12  O   UNL     1       1.546   1.495  -2.334  1.00  0.00    -0.238 OA
HETATM   13  N   UNL     1       2.883   1.293  -0.442  1.00  0.00    -0.325 N 
HETATM   14  C   UNL     1       4.133   1.187  -1.190  1.00  0.00     0.158 C 
HETATM   15  C   UNL     1       3.034   1.367   1.012  1.00  0.00     0.158 C 
HETATM   16  C   UNL     1       5.018   0.074  -0.631  1.00  0.00     0.292 C 
HETATM   17  N   UNL     1       5.232   0.253   0.813  1.00  0.00     0.093 N 
HETATM   18  C   UNL     1       3.947   0.254   1.528  1.00  0.00     0.292 C 
BRANCH  17  19
HETATM   19  C   UNL     1       6.110  -0.793   1.335  1.00  0.00     0.298 C 
BRANCH  19  20
HETATM   20  C   UNL     1       7.568  -0.451   1.075  1.00  0.00     0.194 C 
BRANCH  20  21
HETATM   21  O   UNL     1       8.383  -1.483   1.613  1.00  0.00    -0.399 OA
HETATM   22  H   UNL     1       9.308  -1.236   1.440  1.00  0.00     0.209 HD
ENDBRANCH  20  21
ENDBRANCH  19  20
ENDBRANCH  17  19
ENDBRANCH  10  11
ENDBRANCH   7  10
ENDBRANCH   2   7
BRANCH   1  23
HETATM   23  S   UNL     1      -1.416  -0.425   1.408  1.00  0.00     0.261 S 
HETATM   24  O   UNL     1      -0.802   0.819   1.800  1.00  0.00    -0.200 OA
HETATM   25  O   UNL     1      -1.184  -1.649   2.135  1.00  0.00    -0.200 OA
BRANCH  23  26
HETATM   26  C   UNL     1      -3.156  -0.169   1.295  1.00  0.00     0.079 A 
HETATM   27  C   UNL     1      -3.689   1.102   1.508  1.00  0.00     0.027 A 
HETATM   28  C   UNL     1      -5.066   1.305   1.418  1.00  0.00     0.025 A 
HETATM   29  C   UNL     1      -5.910   0.236   1.117  1.00  0.00     0.034 A 
HETATM   30 CL   UNL     1      -7.609   0.486   1.006  1.00  0.00    -0.084 Cl
HETATM   31  C   UNL     1      -5.377  -1.036   0.904  1.00  0.00     0.025 A 
HETATM   32  C   UNL     1      -4.000  -1.238   0.994  1.00  0.00     0.027 A 
ENDBRANCH  23  26
ENDBRANCH   1  23
BRANCH   4  33
HETATM   33  C   UNL     1      -0.006  -2.834  -0.900  1.00  0.00     0.021 C 
HETATM   34  C   UNL     1      -0.222  -4.291  -1.257  1.00  0.00     0.007 C 
ENDBRANCH   4  33
TORSDOF 9
