REMARK  10 active torsions:
REMARK  status: ('A' for Active; 'I' for Inactive)
REMARK    1  A    between atoms: S_2  and  N_8 
REMARK    2  A    between atoms: S_2  and  C_21 
REMARK    3  A    between atoms: O_3  and  C_11 
REMARK    4  A    between atoms: O_3  and  C_20 
REMARK    5  A    between atoms: O_7  and  C_34 
REMARK       I    between atoms: N_9  and  C_20 
REMARK    6  A    between atoms: N_10  and  C_29 
REMARK    7  A    between atoms: C_11  and  C_12 
REMARK    8  A    between atoms: C_16  and  C_19 
REMARK    9  A    between atoms: C_29  and  C_33 
REMARK   10  A    between atoms: C_33  and  C_34 
ROOT
HETATM    1  N   UNL     1       1.302  -0.038   0.756  1.00  0.00    -0.294 N 
HETATM    2  C   UNL     1       1.762   1.279   0.184  1.00  0.00     0.132 C 
HETATM    3  C   UNL     1       1.475   2.402   1.191  1.00  0.00     0.029 C 
HETATM    4  C   UNL     1       1.591  -0.254   2.218  1.00  0.00     0.096 C 
HETATM    5  C   UNL     1       2.203   2.202   2.517  1.00  0.00     0.004 C 
HETATM    6  C   UNL     1       2.611   0.752   2.749  1.00  0.00     0.026 C 
ENDROOT
BRANCH   2   7
HETATM    7  C   UNL     1       1.067   1.588  -1.119  1.00  0.00     0.094 A 
HETATM    8  C   UNL     1       1.403   2.852  -1.855  1.00  0.00     0.044 A 
HETATM    9  C   UNL     1       1.843   1.526  -2.402  1.00  0.00     0.044 A 
BRANCH   7  10
HETATM   10  O   UNL     1      -0.319   1.150  -1.172  1.00  0.00    -0.290 OA
BRANCH  10  11
HETATM   11  C   UNL     1      -1.268   2.002  -0.673  1.00  0.00     0.363 C 
HETATM   12  O   UNL     1      -0.991   3.100  -0.194  1.00  0.00    -0.238 OA
HETATM   13  N   UNL     1      -2.563   1.488  -0.774  1.00  0.00    -0.325 N 
HETATM   14  C   UNL     1      -3.707   2.258  -0.295  1.00  0.00     0.158 C 
HETATM   15  C   UNL     1      -2.899   0.242  -1.467  1.00  0.00     0.158 C 
HETATM   16  C   UNL     1      -4.670   1.380   0.503  1.00  0.00     0.292 C 
HETATM   17  N   UNL     1      -5.065   0.198  -0.278  1.00  0.00     0.091 N 
HETATM   18  C   UNL     1      -3.883  -0.594  -0.648  1.00  0.00     0.292 C 
BRANCH  17  19
HETATM   19  C   UNL     1      -6.015  -0.620   0.476  1.00  0.00     0.274 C 
BRANCH  19  20
HETATM   20  C   UNL     1      -6.814  -1.511  -0.470  1.00  0.00     0.056 C 
BRANCH  20  21
HETATM   21  C   UNL     1      -7.828  -2.360   0.285  1.00  0.00     0.165 C 
BRANCH  21  22
HETATM   22  O   UNL     1      -8.549  -3.153  -0.648  1.00  0.00    -0.401 OA
HETATM   23  H   UNL     1      -9.186  -3.683  -0.139  1.00  0.00     0.209 HD
ENDBRANCH  21  22
ENDBRANCH  20  21
ENDBRANCH  19  20
ENDBRANCH  17  19
ENDBRANCH  10  11
ENDBRANCH   7  10
ENDBRANCH   2   7
BRANCH   1  24
HETATM   24  S   UNL     1       1.457  -1.434  -0.232  1.00  0.00     0.261 S 
HETATM   25  O   UNL     1       0.822  -1.168  -1.498  1.00  0.00    -0.200 OA
HETATM   26  O   UNL     1       1.118  -2.589   0.561  1.00  0.00    -0.200 OA
BRANCH  24  27
HETATM   27  C   UNL     1       3.202  -1.424  -0.478  1.00  0.00     0.079 A 
HETATM   28  C   UNL     1       3.728  -1.120  -1.734  1.00  0.00     0.027 A 
HETATM   29  C   UNL     1       5.109  -1.112  -1.929  1.00  0.00     0.025 A 
HETATM   30  C   UNL     1       5.965  -1.408  -0.868  1.00  0.00     0.034 A 
HETATM   31 CL   UNL     1       7.669  -1.399  -1.108  1.00  0.00    -0.084 Cl
HETATM   32  C   UNL     1       5.439  -1.712   0.388  1.00  0.00     0.025 A 
HETATM   33  C   UNL     1       4.058  -1.720   0.583  1.00  0.00     0.027 A 
ENDBRANCH  24  27
ENDBRANCH   1  24
BRANCH   4  34
HETATM   34  C   UNL     1       0.271  -0.229   2.985  1.00  0.00     0.021 C 
HETATM   35  C   UNL     1       0.476  -0.573   4.447  1.00  0.00     0.007 C 
ENDBRANCH   4  34
TORSDOF 10
