REMARK  7 active torsions:
REMARK  status: ('A' for Active; 'I' for Inactive)
REMARK    1  A    between atoms: O_2  and  C_7 
REMARK    2  A    between atoms: O_2  and  C_12 
REMARK    3  A    between atoms: O_3  and  C_17 
REMARK    4  A    between atoms: O_3  and  C_20 
REMARK    5  A    between atoms: N_4  and  C_6 
REMARK    6  A    between atoms: C_5  and  C_7 
REMARK    7  A    between atoms: C_20  and  C_21 
ROOT
HETATM    1  O   UNL     1      -0.085   0.447  -0.230  1.00  0.00    -0.347 OA
ENDROOT
BRANCH   1   2
HETATM    2  C   UNL     1      -0.771  -0.461   0.624  1.00  0.00     0.214 C 
BRANCH   2   3
HETATM    3  C   UNL     1      -2.240  -0.333   0.405  1.00  0.00    -0.034 A 
HETATM    4  C   UNL     1      -2.929   0.766   0.919  1.00  0.00     0.011 A 
HETATM    5  C   UNL     1      -4.304   0.886   0.714  1.00  0.00     0.030 A 
HETATM    6  C   UNL     1      -4.989  -0.093  -0.005  1.00  0.00     0.029 A 
HETATM    7  C   UNL     1      -4.301  -1.192  -0.518  1.00  0.00     0.030 A 
HETATM    8  C   UNL     1      -2.926  -1.312  -0.313  1.00  0.00     0.011 A 
BRANCH   6   9
HETATM    9  N   UNL     1      -6.379   0.028  -0.213  1.00  0.00    -0.390 N 
HETATM   10  C   UNL     1      -7.104   1.166   0.316  1.00  0.00     0.149 C 
HETATM   11  C   UNL     1      -7.099  -0.981  -0.965  1.00  0.00     0.149 C 
ENDBRANCH   6   9
ENDBRANCH   2   3
ENDBRANCH   1   2
BRANCH   1  12
HETATM   12  C   UNL     1       1.284   0.427  -0.179  1.00  0.00     0.069 A 
HETATM   13  C   UNL     1       1.937  -0.455   0.682  1.00  0.00     0.039 A 
HETATM   14  C   UNL     1       3.331  -0.476   0.734  1.00  0.00     0.039 A 
HETATM   15  C   UNL     1       4.072   0.386  -0.076  1.00  0.00     0.069 A 
HETATM   16  C   UNL     1       3.418   1.268  -0.936  1.00  0.00     0.039 A 
HETATM   17  C   UNL     1       2.025   1.289  -0.988  1.00  0.00     0.039 A 
BRANCH  15  18
HETATM   18  O   UNL     1       5.431   0.367  -0.025  1.00  0.00    -0.349 OA
BRANCH  18  19
HETATM   19  C   UNL     1       6.051  -0.877   0.301  1.00  0.00     0.207 C 
BRANCH  19  20
HETATM   20  C   UNL     1       7.408  -0.934  -0.364  1.00  0.00     0.248 C 
HETATM   21  F   UNL     1       8.172   0.084   0.119  1.00  0.00    -0.253 F 
ENDBRANCH  19  20
ENDBRANCH  18  19
ENDBRANCH  15  18
ENDBRANCH   1  12
TORSDOF 7
