REMARK  4 active torsions:
REMARK  status: ('A' for Active; 'I' for Inactive)
REMARK    1  A    between atoms: O_1  and  C_12 
REMARK    2  A    between atoms: N_2  and  C_4 
REMARK    3  A    between atoms: C_3  and  C_15 
REMARK    4  A    between atoms: C_5  and  C_16 
ROOT
HETATM    1  C   UNL     1      -0.598   0.001  -0.000  1.00  0.00    -0.061 C 
HETATM    2  C   UNL     1       0.603   0.001  -0.001  1.00  0.00    -0.061 C 
ENDROOT
BRANCH   1   3
HETATM    3  C   UNL     1      -2.027   0.000  -0.000  1.00  0.00     0.018 A 
HETATM    4  C   UNL     1      -2.724  -0.868   0.839  1.00  0.00     0.023 A 
HETATM    5  C   UNL     1      -4.119  -0.869   0.840  1.00  0.00     0.030 A 
HETATM    6  C   UNL     1      -4.817  -0.001   0.000  1.00  0.00     0.025 A 
HETATM    7  C   UNL     1      -4.120   0.868  -0.840  1.00  0.00     0.030 A 
HETATM    8  C   UNL     1      -2.725   0.869  -0.840  1.00  0.00     0.023 A 
BRANCH   6   9
HETATM    9  N   UNL     1      -6.227  -0.001   0.002  1.00  0.00    -0.399 N 
HETATM   10  H   UNL     1      -6.733  -0.632   0.609  1.00  0.00     0.156 HD
HETATM   11  H   UNL     1      -6.734   0.627  -0.608  1.00  0.00     0.156 HD
ENDBRANCH   6   9
ENDBRANCH   1   3
BRANCH   2  12
HETATM   12  C   UNL     1       2.034   0.001  -0.001  1.00  0.00     0.018 A 
HETATM   13  C   UNL     1       2.731  -0.868  -0.841  1.00  0.00     0.023 A 
HETATM   14  C   UNL     1       4.126  -0.868  -0.840  1.00  0.00     0.038 A 
HETATM   15  C   UNL     1       4.823  -0.000   0.000  1.00  0.00     0.065 A 
HETATM   16  C   UNL     1       4.126   0.868   0.840  1.00  0.00     0.038 A 
HETATM   17  C   UNL     1       2.731   0.869   0.839  1.00  0.00     0.023 A 
BRANCH  15  18
HETATM   18  O   UNL     1       6.184  -0.002   0.002  1.00  0.00    -0.361 OA
HETATM   19  H   UNL     1       6.499   0.660   0.642  1.00  0.00     0.217 HD
ENDBRANCH  15  18
ENDBRANCH   2  12
TORSDOF 4
