REMARK  8 active torsions:
REMARK  status: ('A' for Active; 'I' for Inactive)
REMARK    1  A    between atoms: O_3  and  C_24 
REMARK    2  A    between atoms: O_3  and  C_27 
REMARK    3  A    between atoms: N_6  and  C_10 
REMARK    4  A    between atoms: N_7  and  C_32 
REMARK    5  A    between atoms: C_10  and  C_13 
REMARK    6  A    between atoms: C_16  and  C_23 
REMARK    7  A    between atoms: C_25  and  C_26 
REMARK    8  A    between atoms: C_27  and  C_33 
ROOT
HETATM    1  O   UNL     1       1.268  -0.921   2.970  1.00  0.00    -0.267 OA
HETATM    2  N   UNL     1       1.871  -1.778   0.842  1.00  0.00    -0.309 N 
HETATM    3  C   UNL     1       1.204  -1.923  -0.392  1.00  0.00     0.049 A 
HETATM    4  C   UNL     1      -0.106  -1.440  -0.290  1.00  0.00     0.006 A 
HETATM    5  C   UNL     1      -0.257  -0.969   1.083  1.00  0.00     0.045 A 
HETATM    6  C   UNL     1       1.038  -1.196   1.806  1.00  0.00     0.259 A 
HETATM    7  C   UNL     1       1.690  -2.452  -1.576  1.00  0.00     0.030 A 
HETATM    8  C   UNL     1      -0.966  -1.473  -1.373  1.00  0.00     0.015 A 
HETATM    9  C   UNL     1      -1.329  -0.423   1.660  1.00  0.00     0.018 C 
HETATM   10  C   UNL     1       0.828  -2.489  -2.674  1.00  0.00     0.002 A 
HETATM   11  C   UNL     1      -0.488  -2.004  -2.574  1.00  0.00     0.001 A 
ENDROOT
BRANCH   9  12
HETATM   12  C   UNL     1      -2.582  -0.201   0.969  1.00  0.00     0.002 C 
HETATM   13  C   UNL     1      -3.653   0.350   1.562  1.00  0.00     0.011 C 
BRANCH  13  14
HETATM   14  C   UNL     1      -4.951   0.591   0.908  1.00  0.00    -0.036 A 
HETATM   15  C   UNL     1      -5.032   0.640  -0.484  1.00  0.00     0.014 A 
HETATM   16  C   UNL     1      -6.261   0.869  -1.103  1.00  0.00     0.037 A 
HETATM   17  C   UNL     1      -7.409   1.048  -0.330  1.00  0.00     0.102 A 
HETATM   18  C   UNL     1      -7.327   0.998   1.062  1.00  0.00     0.037 A 
HETATM   19  C   UNL     1      -6.098   0.769   1.681  1.00  0.00     0.014 A 
BRANCH  17  20
HETATM   20  N   UNL     1      -8.660   1.281  -0.959  1.00  0.00    -0.116 N 
HETATM   21  O   UNL     1      -8.712   1.323  -2.212  1.00  0.00    -0.532 OA
HETATM   22  O   UNL     1      -9.680   1.440  -0.245  1.00  0.00    -0.532 OA
ENDBRANCH  17  20
ENDBRANCH  13  14
ENDBRANCH   9  12
BRANCH   2  23
HETATM   23  C   UNL     1       3.239  -2.185   1.057  1.00  0.00     0.171 C 
BRANCH  23  24
HETATM   24  C   UNL     1       4.216  -1.151   0.575  1.00  0.00    -0.040 A 
HETATM   25  C   UNL     1       5.148  -1.477  -0.410  1.00  0.00     0.011 A 
HETATM   26  C   UNL     1       6.054  -0.516  -0.858  1.00  0.00     0.037 A 
HETATM   27  C   UNL     1       6.029   0.771  -0.320  1.00  0.00     0.068 A 
HETATM   28  C   UNL     1       5.096   1.097   0.665  1.00  0.00     0.037 A 
HETATM   29  C   UNL     1       4.190   0.136   1.113  1.00  0.00     0.011 A 
BRANCH  27  30
HETATM   30  O   UNL     1       6.913   1.709  -0.757  1.00  0.00    -0.349 OA
BRANCH  30  31
HETATM   31  C   UNL     1       7.311   2.711   0.177  1.00  0.00     0.207 C 
BRANCH  31  32
HETATM   32  C   UNL     1       8.713   3.165  -0.162  1.00  0.00     0.248 C 
HETATM   33  F   UNL     1       8.705   3.700  -1.414  1.00  0.00    -0.253 F 
ENDBRANCH  31  32
ENDBRANCH  30  31
ENDBRANCH  27  30
ENDBRANCH  23  24
ENDBRANCH   2  23
TORSDOF 8
