REMARK  5 active torsions:
REMARK  status: ('A' for Active; 'I' for Inactive)
REMARK    1  A    between atoms: N_4  and  C_15 
REMARK    2  A    between atoms: C_5  and  C_6 
REMARK    3  A    between atoms: C_6  and  C_11 
REMARK    4  A    between atoms: C_9  and  C_13 
REMARK    5  A    between atoms: C_11  and  C_18 
ROOT
HETATM    1  N   UNL     1       1.500  -0.024   0.254  1.00  0.00    -0.315 N 
HETATM    2  N   UNL     1      -0.061  -1.525  -0.307  1.00  0.00    -0.229 NA
HETATM    3  C   UNL     1       3.842  -0.344   0.300  1.00  0.00    -0.042 A 
HETATM    4  C   UNL     1       1.233  -1.324  -0.165  1.00  0.00     0.134 A 
HETATM    5  C   UNL     1       2.782   0.466   0.485  1.00  0.00     0.105 A 
HETATM    6  C   UNL     1      -0.650  -0.332   0.027  1.00  0.00     0.085 A 
HETATM    7  C   UNL     1       0.289   0.610   0.376  1.00  0.00     0.130 A 
HETATM    8  C   UNL     1       3.598  -1.717  -0.141  1.00  0.00     0.012 A 
HETATM    9  C   UNL     1       2.353  -2.181  -0.362  1.00  0.00     0.051 A 
ENDROOT
BRANCH   6  10
HETATM   10  C   UNL     1      -2.062  -0.108   0.011  1.00  0.00    -0.006 A 
HETATM   11  C   UNL     1      -2.563   1.166  -0.257  1.00  0.00     0.016 A 
HETATM   12  C   UNL     1      -3.941   1.385  -0.273  1.00  0.00     0.030 A 
HETATM   13  C   UNL     1      -4.817   0.329  -0.020  1.00  0.00     0.029 A 
HETATM   14  C   UNL     1      -4.316  -0.945   0.248  1.00  0.00     0.030 A 
HETATM   15  C   UNL     1      -2.938  -1.163   0.264  1.00  0.00     0.016 A 
BRANCH  13  16
HETATM   16  N   UNL     1      -6.210   0.550  -0.037  1.00  0.00    -0.390 N 
HETATM   17  C   UNL     1      -6.740   1.870  -0.315  1.00  0.00     0.149 C 
HETATM   18  C   UNL     1      -7.129  -0.541   0.217  1.00  0.00     0.149 C 
ENDBRANCH  13  16
ENDBRANCH   6  10
BRANCH   3  19
HETATM   19  C   UNL     1       5.259   0.080   0.518  1.00  0.00     0.042 C 
BRANCH  19  20
HETATM   20  C   UNL     1       5.879   0.659  -0.752  1.00  0.00     0.036 C 
BRANCH  20  21
HETATM   21  C   UNL     1       7.323   1.074  -0.525  1.00  0.00     0.222 C 
HETATM   22  F   UNL     1       7.369   2.015   0.454  1.00  0.00    -0.255 F 
ENDBRANCH  20  21
ENDBRANCH  19  20
ENDBRANCH   3  19
TORSDOF 5
