REMARK  2 active torsions:
REMARK  status: ('A' for Active; 'I' for Inactive)
REMARK    1  A    between atoms: O_3  and  C_15 
REMARK    2  A    between atoms: N_6  and  C_14 
ROOT
HETATM    1  S   UNL     1       1.029   1.403  -0.023  1.00  0.00    -0.066 SA
HETATM    2  F   UNL     1      -3.745   2.267   0.026  1.00  0.00    -0.182 F 
HETATM    3  N   UNL     1       1.025  -1.175   0.048  1.00  0.00    -0.238 NA
HETATM    4  N   UNL     1      -1.790   1.060   0.029  1.00  0.00    -0.216 NA
HETATM    5  C   UNL     1       2.558   0.606  -0.023  1.00  0.00     0.038 A 
HETATM    6  C   UNL     1       2.353  -0.776   0.018  1.00  0.00     0.075 A 
HETATM    7  C   UNL     1       0.248  -0.117   0.031  1.00  0.00     0.127 A 
HETATM    8  C   UNL     1      -1.195  -0.154   0.053  1.00  0.00     0.096 A 
HETATM    9  C   UNL     1       3.846   1.165  -0.058  1.00  0.00     0.057 A 
HETATM   10  C   UNL     1       3.479  -1.628   0.026  1.00  0.00     0.036 A 
HETATM   11  C   UNL     1      -1.885  -1.355   0.096  1.00  0.00     0.037 A 
HETATM   12  C   UNL     1      -3.923  -0.077   0.092  1.00  0.00     0.086 A 
HETATM   13  C   UNL     1       4.943   0.299  -0.050  1.00  0.00     0.067 A 
HETATM   14  C   UNL     1      -3.275  -1.307   0.116  1.00  0.00     0.036 A 
HETATM   15  C   UNL     1       4.765  -1.079  -0.008  1.00  0.00     0.039 A 
HETATM   16  C   UNL     1      -3.142   1.067   0.049  1.00  0.00     0.237 A 
ENDROOT
BRANCH  13  17
HETATM   17  O   UNL     1       6.204   0.816  -0.081  1.00  0.00    -0.361 OA
HETATM   18  H   UNL     1       6.147   1.787  -0.107  1.00  0.00     0.217 HD
ENDBRANCH  13  17
BRANCH  12  19
HETATM   19  N   UNL     1      -5.325  -0.002   0.110  1.00  0.00    -0.391 N 
HETATM   20  C   UNL     1      -6.171  -1.014  -0.450  1.00  0.00     0.146 C 
HETATM   21  H   UNL     1      -5.719   0.928   0.216  1.00  0.00     0.159 HD
ENDBRANCH  12  19
TORSDOF 2
