REMARK  7 active torsions:
REMARK  status: ('A' for Active; 'I' for Inactive)
REMARK    1  A    between atoms: S_2  and  N_8 
REMARK    2  A    between atoms: S_2  and  C_20 
REMARK    3  A    between atoms: O_3  and  C_10 
REMARK    4  A    between atoms: O_3  and  C_19 
REMARK    5  A    between atoms: O_7  and  C_24 
REMARK       I    between atoms: N_9  and  C_19 
REMARK    6  A    between atoms: C_10  and  C_11 
REMARK    7  A    between atoms: C_15  and  C_18 
ROOT
HETATM    1  N   UNL     1      -0.491  -0.828   0.242  1.00  0.00    -0.294 N 
HETATM    2  C   UNL     1      -0.509  -0.301  -1.171  1.00  0.00     0.132 C 
HETATM    3  C   UNL     1       0.002  -1.388  -2.127  1.00  0.00     0.029 C 
HETATM    4  C   UNL     1      -0.949  -2.252   0.416  1.00  0.00     0.096 C 
HETATM    5  C   UNL     1      -0.859  -2.647  -2.100  1.00  0.00     0.004 C 
HETATM    6  C   UNL     1      -1.680  -2.768  -0.822  1.00  0.00     0.026 C 
ENDROOT
BRANCH   2   7
HETATM    7  C   UNL     1       0.350   0.931  -1.311  1.00  0.00     0.094 A 
HETATM    8  C   UNL     1       0.449   1.615  -2.642  1.00  0.00     0.044 A 
HETATM    9  C   UNL     1      -0.303   2.265  -1.519  1.00  0.00     0.044 A 
BRANCH   7  10
HETATM   10  O   UNL     1       1.553   0.913  -0.494  1.00  0.00    -0.290 OA
BRANCH  10  11
HETATM   11  C   UNL     1       2.660   0.302  -1.021  1.00  0.00     0.363 C 
HETATM   12  O   UNL     1       2.681  -0.222  -2.132  1.00  0.00    -0.238 OA
HETATM   13  N   UNL     1       3.739   0.344  -0.156  1.00  0.00    -0.326 N 
HETATM   14  C   UNL     1       3.743   0.961   1.169  1.00  0.00     0.159 C 
HETATM   15  C   UNL     1       5.032  -0.237  -0.478  1.00  0.00     0.131 C 
HETATM   16  C   UNL     1       5.208   0.948   1.588  1.00  0.00     0.137 C 
HETATM   17  C   UNL     1       5.779  -0.259   0.850  1.00  0.00     0.053 C 
BRANCH  16  18
HETATM   18  O   UNL     1       5.857   2.128   1.129  1.00  0.00    -0.394 OA
HETATM   19  H   UNL     1       5.436   2.883   1.574  1.00  0.00     0.210 HD
ENDBRANCH  16  18
ENDBRANCH  10  11
ENDBRANCH   7  10
ENDBRANCH   2   7
BRANCH   1  20
HETATM   20  S   UNL     1      -0.955   0.246   1.499  1.00  0.00     0.261 S 
HETATM   21  O   UNL     1      -0.169   1.448   1.385  1.00  0.00    -0.200 OA
HETATM   22  O   UNL     1      -1.025  -0.501   2.730  1.00  0.00    -0.200 OA
BRANCH  20  23
HETATM   23  C   UNL     1      -2.599   0.611   0.979  1.00  0.00     0.079 A 
HETATM   24  C   UNL     1      -2.911   1.880   0.493  1.00  0.00     0.027 A 
HETATM   25  C   UNL     1      -4.212   2.169   0.081  1.00  0.00     0.025 A 
HETATM   26  C   UNL     1      -5.201   1.188   0.155  1.00  0.00     0.034 A 
HETATM   27 CL   UNL     1      -6.806   1.544  -0.354  1.00  0.00    -0.084 Cl
HETATM   28  C   UNL     1      -4.889  -0.082   0.640  1.00  0.00     0.025 A 
HETATM   29  C   UNL     1      -3.588  -0.371   1.052  1.00  0.00     0.027 A 
ENDBRANCH  20  23
ENDBRANCH   1  20
BRANCH   4  30
HETATM   30  C   UNL     1       0.256  -3.108   0.799  1.00  0.00     0.021 C 
HETATM   31  C   UNL     1      -0.158  -4.531   1.120  1.00  0.00     0.007 C 
ENDBRANCH   4  30
TORSDOF 7
