REMARK  3 active torsions:
REMARK  status: ('A' for Active; 'I' for Inactive)
REMARK    1  A    between atoms: O_2  and  C_12 
REMARK    2  A    between atoms: N_4  and  C_11 
REMARK    3  A    between atoms: C_5  and  C_6 
ROOT
HETATM    1  S   UNL     1       0.967  -1.788   0.192  1.00  0.00    -0.067 SA
HETATM    2  N   UNL     1       1.014   0.772  -0.119  1.00  0.00    -0.237 NA
HETATM    3  C   UNL     1       0.216  -0.265  -0.014  1.00  0.00     0.109 A 
HETATM    4  C   UNL     1       2.334   0.354  -0.032  1.00  0.00     0.108 A 
HETATM    5  C   UNL     1       2.511  -1.022   0.140  1.00  0.00     0.038 A 
HETATM    6  C   UNL     1       3.476   1.181  -0.103  1.00  0.00     0.095 A 
HETATM    7  C   UNL     1       3.788  -1.598   0.244  1.00  0.00     0.021 A 
HETATM    8  C   UNL     1       4.750   0.615   0.000  1.00  0.00     0.039 A 
HETATM    9  C   UNL     1       4.901  -0.757   0.172  1.00  0.00     0.004 A 
ENDROOT
BRANCH   3  10
HETATM   10  C   UNL     1      -1.225  -0.204  -0.060  1.00  0.00    -0.000 A 
HETATM   11  C   UNL     1      -1.962  -1.351  -0.356  1.00  0.00     0.016 A 
HETATM   12  C   UNL     1      -3.355  -1.293  -0.400  1.00  0.00     0.030 A 
HETATM   13  C   UNL     1      -4.011  -0.088  -0.147  1.00  0.00     0.027 A 
HETATM   14  C   UNL     1      -3.275   1.058   0.149  1.00  0.00     0.030 A 
HETATM   15  C   UNL     1      -1.882   1.000   0.193  1.00  0.00     0.016 A 
BRANCH  13  16
HETATM   16  N   UNL     1      -5.420  -0.029  -0.193  1.00  0.00    -0.394 N 
HETATM   17  C   UNL     1      -6.185   0.879   0.604  1.00  0.00     0.146 C 
HETATM   18  H   UNL     1      -5.891  -0.860  -0.537  1.00  0.00     0.159 HD
ENDBRANCH  13  16
ENDBRANCH   3  10
BRANCH   6  19
HETATM   19  O   UNL     1       3.358   2.535  -0.271  1.00  0.00    -0.358 OA
HETATM   20  H   UNL     1       4.247   2.928  -0.294  1.00  0.00     0.217 HD
ENDBRANCH   6  19
TORSDOF 3
