REMARK  2 active torsions:
REMARK  status: ('A' for Active; 'I' for Inactive)
REMARK    1  A    between atoms: O_2  and  C_13 
REMARK    2  A    between atoms: N_4  and  C_15 
ROOT
HETATM    1  S   UNL     1       0.515   1.487  -0.190  1.00  0.00    -0.067 SA
HETATM    2  N   UNL     1       0.431  -1.071   0.133  1.00  0.00    -0.240 NA
HETATM    3  C   UNL     1       2.019   0.650  -0.083  1.00  0.00     0.038 A 
HETATM    4  C   UNL     1       1.772  -0.715   0.089  1.00  0.00     0.075 A 
HETATM    5  C   UNL     1      -0.313   0.002  -0.002  1.00  0.00     0.109 A 
HETATM    6  C   UNL     1      -1.756   0.010  -0.003  1.00  0.00    -0.000 A 
HETATM    7  C   UNL     1       3.324   1.165  -0.148  1.00  0.00     0.057 A 
HETATM    8  C   UNL     1       2.871  -1.594   0.202  1.00  0.00     0.036 A 
HETATM    9  C   UNL     1      -2.459  -1.164  -0.271  1.00  0.00     0.016 A 
HETATM   10  C   UNL     1      -2.446   1.192   0.266  1.00  0.00     0.016 A 
HETATM   11  C   UNL     1       4.394   0.273  -0.034  1.00  0.00     0.067 A 
HETATM   12  C   UNL     1       4.173  -1.089   0.139  1.00  0.00     0.039 A 
HETATM   13  C   UNL     1      -4.545   0.026  -0.001  1.00  0.00     0.025 A 
HETATM   14  C   UNL     1      -3.854  -1.156  -0.270  1.00  0.00     0.030 A 
HETATM   15  C   UNL     1      -3.841   1.200   0.267  1.00  0.00     0.030 A 
ENDROOT
BRANCH  11  16
HETATM   16  O   UNL     1       5.671   0.748  -0.092  1.00  0.00    -0.361 OA
HETATM   17  H   UNL     1       5.644   1.713  -0.214  1.00  0.00     0.217 HD
ENDBRANCH  11  16
BRANCH  13  18
HETATM   18  N   UNL     1      -5.955   0.034  -0.001  1.00  0.00    -0.399 N 
HETATM   19  H   UNL     1      -6.466  -0.817  -0.194  1.00  0.00     0.156 HD
HETATM   20  H   UNL     1      -6.456   0.890   0.195  1.00  0.00     0.156 HD
ENDBRANCH  13  18
TORSDOF 2
