REMARK  8 active torsions:
REMARK  status: ('A' for Active; 'I' for Inactive)
REMARK    1  A    between atoms: S_2  and  N_8 
REMARK    2  A    between atoms: S_2  and  C_21 
REMARK    3  A    between atoms: O_3  and  C_10 
REMARK    4  A    between atoms: O_3  and  C_19 
REMARK    5  A    between atoms: O_7  and  C_24 
REMARK       I    between atoms: N_9  and  C_19 
REMARK    6  A    between atoms: C_10  and  C_11 
REMARK    7  A    between atoms: C_15  and  C_18 
REMARK    8  A    between atoms: C_18  and  C_20 
ROOT
HETATM    1  N   UNL     1      -0.506   0.700  -0.025  1.00  0.00    -0.294 N 
HETATM    2  C   UNL     1      -0.548  -0.105   1.249  1.00  0.00     0.132 C 
HETATM    3  C   UNL     1      -0.018   0.749   2.410  1.00  0.00     0.029 C 
HETATM    4  C   UNL     1      -0.926   2.140   0.095  1.00  0.00     0.096 C 
HETATM    5  C   UNL     1      -0.847   2.009   2.639  1.00  0.00     0.004 C 
HETATM    6  C   UNL     1      -1.654   2.410   1.411  1.00  0.00     0.026 C 
ENDROOT
BRANCH   2   7
HETATM    7  C   UNL     1       0.279  -1.362   1.136  1.00  0.00     0.094 A 
HETATM    8  C   UNL     1       0.350  -2.307   2.299  1.00  0.00     0.044 A 
HETATM    9  C   UNL     1      -0.410  -2.693   1.064  1.00  0.00     0.044 A 
BRANCH   7  10
HETATM   10  O   UNL     1       1.488  -1.209   0.344  1.00  0.00    -0.290 OA
BRANCH  10  11
HETATM   11  C   UNL     1       2.605  -0.748   0.988  1.00  0.00     0.363 C 
HETATM   12  O   UNL     1       2.631  -0.464   2.183  1.00  0.00    -0.238 OA
HETATM   13  N   UNL     1       3.690  -0.641   0.136  1.00  0.00    -0.326 N 
HETATM   14  C   UNL     1       3.689  -0.972  -1.287  1.00  0.00     0.159 C 
HETATM   15  C   UNL     1       4.995  -0.172   0.574  1.00  0.00     0.131 C 
HETATM   16  C   UNL     1       5.158  -0.911  -1.691  1.00  0.00     0.137 C 
HETATM   17  C   UNL     1       5.753   0.103  -0.719  1.00  0.00     0.053 C 
BRANCH  16  18
HETATM   18  O   UNL     1       5.773  -2.178  -1.482  1.00  0.00    -0.394 OA
HETATM   19  H   UNL     1       5.337  -2.814  -2.074  1.00  0.00     0.210 HD
ENDBRANCH  16  18
ENDBRANCH  10  11
ENDBRANCH   7  10
ENDBRANCH   2   7
BRANCH   1  20
HETATM   20  S   UNL     1      -0.987  -0.081  -1.477  1.00  0.00     0.261 S 
HETATM   21  O   UNL     1      -0.231  -1.302  -1.609  1.00  0.00    -0.200 OA
HETATM   22  O   UNL     1      -1.027   0.904  -2.529  1.00  0.00    -0.200 OA
BRANCH  20  23
HETATM   23  C   UNL     1      -2.643  -0.502  -1.047  1.00  0.00     0.079 A 
HETATM   24  C   UNL     1      -2.991  -1.835  -0.833  1.00  0.00     0.027 A 
HETATM   25  C   UNL     1      -4.302  -2.168  -0.493  1.00  0.00     0.025 A 
HETATM   26  C   UNL     1      -5.265  -1.167  -0.366  1.00  0.00     0.034 A 
HETATM   27 CL   UNL     1      -6.883  -1.578   0.054  1.00  0.00    -0.084 Cl
HETATM   28  C   UNL     1      -4.917   0.166  -0.580  1.00  0.00     0.025 A 
HETATM   29  C   UNL     1      -3.606   0.499  -0.920  1.00  0.00     0.027 A 
ENDBRANCH  20  23
ENDBRANCH   1  20
BRANCH   4  30
HETATM   30  C   UNL     1       0.303   3.025  -0.100  1.00  0.00     0.026 C 
BRANCH  30  31
HETATM   31  C   UNL     1      -0.087   4.401  -0.626  1.00  0.00    -0.002 C 
HETATM   32  C   UNL     1       1.134   5.291  -0.797  1.00  0.00     0.005 C 
ENDBRANCH  30  31
ENDBRANCH   4  30
TORSDOF 8
