REMARK  12 active torsions:
REMARK  status: ('A' for Active; 'I' for Inactive)
REMARK    1  A    between atoms: O_2  and  C_7 
REMARK    2  A    between atoms: O_2  and  C_8 
REMARK    3  A    between atoms: O_3  and  C_9 
REMARK    4  A    between atoms: O_3  and  C_14 
REMARK    5  A    between atoms: O_4  and  C_10 
REMARK    6  A    between atoms: O_4  and  C_23 
REMARK    7  A    between atoms: N_5  and  C_13 
REMARK    8  A    between atoms: C_7  and  C_9 
REMARK    9  A    between atoms: C_8  and  C_10 
REMARK   10  A    between atoms: C_11  and  C_15 
REMARK   11  A    between atoms: C_12  and  C_18 
REMARK   12  A    between atoms: C_23  and  C_25 
ROOT
HETATM    1  N   UNL     1       0.375  -1.135  -0.265  1.00  0.00    -0.236 NA
HETATM    2  C   UNL     1      -1.559   0.027   0.605  1.00  0.00    -0.018 A 
HETATM    3  C   UNL     1       1.110  -0.534   0.698  1.00  0.00     0.164 A 
HETATM    4  C   UNL     1      -0.769   0.625   1.581  1.00  0.00     0.017 A 
HETATM    5  C   UNL     1       0.592   0.344   1.635  1.00  0.00     0.059 A 
HETATM    6  C   UNL     1      -0.944  -0.837  -0.287  1.00  0.00     0.131 A 
ENDROOT
BRANCH   2   7
HETATM    7  C   UNL     1      -3.003   0.304   0.521  1.00  0.00     0.013 C 
HETATM    8  C   UNL     1      -3.913  -0.479  -0.107  1.00  0.00     0.012 C 
BRANCH   8   9
HETATM    9  C   UNL     1      -5.342  -0.216  -0.173  1.00  0.00    -0.036 A 
HETATM   10  C   UNL     1      -6.228  -1.253  -0.465  1.00  0.00     0.013 A 
HETATM   11  C   UNL     1      -7.599  -1.001  -0.530  1.00  0.00     0.030 A 
HETATM   12  C   UNL     1      -8.083   0.287  -0.304  1.00  0.00     0.027 A 
HETATM   13  C   UNL     1      -7.196   1.324  -0.012  1.00  0.00     0.030 A 
HETATM   14  C   UNL     1      -5.826   1.072   0.053  1.00  0.00     0.013 A 
BRANCH  12  15
HETATM   15  N   UNL     1      -9.468   0.541  -0.370  1.00  0.00    -0.394 N 
HETATM   16  C   UNL     1     -10.008   1.805  -0.769  1.00  0.00     0.146 C 
HETATM   17  H   UNL     1     -10.068  -0.273  -0.460  1.00  0.00     0.159 HD
ENDBRANCH  12  15
ENDBRANCH   8   9
ENDBRANCH   2   7
BRANCH   3  18
HETATM   18  O   UNL     1       2.448  -0.829   0.731  1.00  0.00    -0.332 OA
BRANCH  18  19
HETATM   19  C   UNL     1       2.929  -1.736  -0.253  1.00  0.00     0.203 C 
BRANCH  19  20
HETATM   20  C   UNL     1       4.423  -1.917  -0.072  1.00  0.00     0.194 C 
BRANCH  20  21
HETATM   21  O   UNL     1       5.067  -0.660  -0.242  1.00  0.00    -0.387 OA
BRANCH  21  22
HETATM   22  C   UNL     1       6.475  -0.770  -0.082  1.00  0.00     0.193 C 
BRANCH  22  23
HETATM   23  C   UNL     1       7.105   0.592  -0.297  1.00  0.00     0.193 C 
BRANCH  23  24
HETATM   24  O   UNL     1       8.512   0.486  -0.117  1.00  0.00    -0.387 OA
BRANCH  24  25
HETATM   25  C   UNL     1       9.157   1.737  -0.308  1.00  0.00     0.199 C 
BRANCH  25  26
HETATM   26  C   UNL     1      10.646   1.552  -0.117  1.00  0.00     0.248 C 
HETATM   27  F   UNL     1      11.097   0.672  -1.052  1.00  0.00    -0.253 F 
ENDBRANCH  25  26
ENDBRANCH  24  25
ENDBRANCH  23  24
ENDBRANCH  22  23
ENDBRANCH  21  22
ENDBRANCH  20  21
ENDBRANCH  19  20
ENDBRANCH  18  19
ENDBRANCH   3  18
TORSDOF 12
