REMARK  12 active torsions:
REMARK  status: ('A' for Active; 'I' for Inactive)
REMARK    1  A    between atoms: O_2  and  C_6 
REMARK    2  A    between atoms: O_2  and  C_9 
REMARK    3  A    between atoms: O_3  and  C_7 
REMARK    4  A    between atoms: O_3  and  C_10 
REMARK    5  A    between atoms: O_4  and  C_11 
REMARK    6  A    between atoms: O_4  and  C_24 
REMARK    7  A    between atoms: N_5  and  C_19 
REMARK    8  A    between atoms: C_6  and  C_7 
REMARK    9  A    between atoms: C_8  and  C_17 
REMARK   10  A    between atoms: C_9  and  C_11 
REMARK   11  A    between atoms: C_12  and  C_18 
REMARK   12  A    between atoms: C_24  and  C_25 
ROOT
HETATM    1  C   UNL     1       0.767   1.115  -0.168  1.00  0.00    -0.036 A 
HETATM    2  C   UNL     1      -1.921   1.582  -0.646  1.00  0.00     0.068 A 
HETATM    3  C   UNL     1      -0.003   0.116  -0.740  1.00  0.00     0.014 A 
HETATM    4  C   UNL     1       0.222   2.343   0.170  1.00  0.00     0.014 A 
HETATM    5  C   UNL     1      -1.357   0.351  -0.981  1.00  0.00     0.037 A 
HETATM    6  C   UNL     1      -1.132   2.578  -0.071  1.00  0.00     0.037 A 
ENDROOT
BRANCH   1   7
HETATM    7  C   UNL     1       2.197   0.868   0.087  1.00  0.00     0.012 C 
HETATM    8  C   UNL     1       2.943  -0.090  -0.513  1.00  0.00     0.012 C 
BRANCH   8   9
HETATM    9  C   UNL     1       4.359  -0.323  -0.276  1.00  0.00    -0.036 A 
HETATM   10  C   UNL     1       5.117  -1.025  -1.213  1.00  0.00     0.013 A 
HETATM   11  C   UNL     1       6.475  -1.248  -0.986  1.00  0.00     0.030 A 
HETATM   12  C   UNL     1       7.075  -0.768   0.179  1.00  0.00     0.027 A 
HETATM   13  C   UNL     1       6.317  -0.066   1.116  1.00  0.00     0.030 A 
HETATM   14  C   UNL     1       4.959   0.157   0.888  1.00  0.00     0.013 A 
BRANCH  12  15
HETATM   15  N   UNL     1       8.448  -0.994   0.409  1.00  0.00    -0.394 N 
HETATM   16  C   UNL     1       9.268  -0.093   1.159  1.00  0.00     0.146 C 
HETATM   17  H   UNL     1       8.914  -1.617  -0.242  1.00  0.00     0.159 HD
ENDBRANCH  12  15
ENDBRANCH   8   9
ENDBRANCH   1   7
BRANCH   2  18
HETATM   18  O   UNL     1      -3.242   1.811  -0.881  1.00  0.00    -0.349 OA
BRANCH  18  19
HETATM   19  C   UNL     1      -3.912   2.712  -0.001  1.00  0.00     0.201 C 
BRANCH  19  20
HETATM   20  C   UNL     1      -5.376   2.325   0.084  1.00  0.00     0.194 C 
BRANCH  20  21
HETATM   21  O   UNL     1      -5.476   0.990   0.563  1.00  0.00    -0.387 OA
BRANCH  21  22
HETATM   22  C   UNL     1      -6.831   0.573   0.663  1.00  0.00     0.193 C 
BRANCH  22  23
HETATM   23  C   UNL     1      -6.872  -0.861   1.155  1.00  0.00     0.193 C 
BRANCH  23  24
HETATM   24  O   UNL     1      -6.195  -1.692   0.220  1.00  0.00    -0.387 OA
BRANCH  24  25
HETATM   25  C   UNL     1      -6.202  -3.052   0.631  1.00  0.00     0.199 C 
BRANCH  25  26
HETATM   26  C   UNL     1      -5.457  -3.875  -0.395  1.00  0.00     0.248 C 
HETATM   27  F   UNL     1      -4.170  -3.435  -0.454  1.00  0.00    -0.253 F 
ENDBRANCH  25  26
ENDBRANCH  24  25
ENDBRANCH  23  24
ENDBRANCH  22  23
ENDBRANCH  21  22
ENDBRANCH  20  21
ENDBRANCH  19  20
ENDBRANCH  18  19
ENDBRANCH   2  18
TORSDOF 12
