REMARK  8 active torsions:
REMARK  status: ('A' for Active; 'I' for Inactive)
REMARK    1  A    between atoms: N_3  and  C_10 
REMARK    2  A    between atoms: N_3  and  C_15 
REMARK    3  A    between atoms: N_4  and  C_16 
REMARK    4  A    between atoms: N_4  and  C_17 
REMARK    5  A    between atoms: N_5  and  C_12 
REMARK       I    between atoms: N_5  and  C_24 
REMARK    6  A    between atoms: C_16  and  C_26 
REMARK    7  A    between atoms: C_17  and  C_27 
REMARK    8  A    between atoms: C_24  and  C_28 
ROOT
HETATM    1  N   UNL     1       3.570   3.401  -0.105  1.00  0.00    -0.241 NA
HETATM    2  N   UNL     1       4.338   1.160  -0.547  1.00  0.00    -0.224 NA
HETATM    3  C   UNL     1       1.980   1.614  -0.272  1.00  0.00     0.041 A 
HETATM    4  C   UNL     1       2.298   2.967  -0.071  1.00  0.00     0.072 A 
HETATM    5  C   UNL     1       3.053   0.759  -0.506  1.00  0.00     0.142 A 
HETATM    6  C   UNL     1       0.646   1.171  -0.234  1.00  0.00     0.047 A 
HETATM    7  C   UNL     1      -0.382   2.078   0.005  1.00  0.00     0.036 A 
HETATM    8  C   UNL     1       1.250   3.853   0.166  1.00  0.00     0.035 A 
HETATM    9  C   UNL     1      -0.079   3.421   0.205  1.00  0.00     0.032 A 
HETATM   10  C   UNL     1       4.521   2.474  -0.341  1.00  0.00     0.236 A 
ENDROOT
BRANCH   7  11
HETATM   11  N   UNL     1      -1.707   1.646   0.042  1.00  0.00    -0.316 N 
HETATM   12  C   UNL     1      -2.856   2.408   0.265  1.00  0.00     0.301 C 
HETATM   13  O   UNL     1      -2.934   3.610   0.472  1.00  0.00    -0.258 OA
HETATM   14  H   UNL     1      -1.843   0.649  -0.114  1.00  0.00     0.170 HD
BRANCH  12  15
HETATM   15  C   UNL     1      -4.089   1.649   0.239  1.00  0.00    -0.004 C 
HETATM   16  C   UNL     1      -5.112   1.020   0.218  1.00  0.00    -0.066 C 
BRANCH  16  17
HETATM   17  C   UNL     1      -6.362   0.255   0.192  1.00  0.00     0.366 C 
BRANCH  17  18
HETATM   18  N   UNL     1      -6.098  -1.176   0.266  1.00  0.00     0.098 N 
HETATM   19  C   UNL     1      -5.276  -1.608  -0.866  1.00  0.00     0.311 C 
BRANCH  18  20
HETATM   20  C   UNL     1      -7.352  -1.932   0.298  1.00  0.00     0.299 C 
BRANCH  20  21
HETATM   21  C   UNL     1      -7.106  -3.402   0.440  1.00  0.00    -0.007 C 
HETATM   22  C   UNL     1      -7.516  -4.318  -0.445  1.00  0.00     0.008 C 
ENDBRANCH  20  21
ENDBRANCH  18  20
ENDBRANCH  17  18
ENDBRANCH  16  17
ENDBRANCH  12  15
ENDBRANCH   7  11
BRANCH   5  23
HETATM   23  N   UNL     1       2.811  -0.621  -0.718  1.00  0.00    -0.340 N 
HETATM   24  H   UNL     1       2.042  -0.792  -1.360  1.00  0.00     0.167 HD
BRANCH  23  25
HETATM   25  C   UNL     1       3.572  -1.769  -0.447  1.00  0.00     0.035 A 
HETATM   26  C   UNL     1       4.462  -1.786   0.631  1.00  0.00     0.048 A 
HETATM   27  C   UNL     1       5.218  -2.927   0.900  1.00  0.00     0.013 A 
HETATM   28 BR   UNL     1       6.420  -2.943   2.359  1.00  0.00    -0.051 Br
HETATM   29  C   UNL     1       5.088  -4.056   0.092  1.00  0.00     0.019 A 
HETATM   30  C   UNL     1       4.201  -4.045  -0.985  1.00  0.00     0.004 A 
HETATM   31  C   UNL     1       3.445  -2.904  -1.254  1.00  0.00     0.029 A 
ENDBRANCH  23  25
ENDBRANCH   5  23
TORSDOF 8
