REMARK  8 active torsions:
REMARK  status: ('A' for Active; 'I' for Inactive)
REMARK    1  A    between atoms: O_4  and  C_15 
REMARK    2  A    between atoms: O_4  and  C_19 
REMARK    3  A    between atoms: N_5  and  C_12 
REMARK    4  A    between atoms: N_5  and  C_13 
REMARK    5  A    between atoms: N_10  and  C_34 
REMARK    6  A    between atoms: C_19  and  C_22 
REMARK    7  A    between atoms: C_23  and  C_30 
REMARK    8  A    between atoms: C_31  and  C_32 
ROOT
HETATM    1  S   UNL     1      -4.323   2.917   0.688  1.00  0.00    -0.060 SA
HETATM    2  N   UNL     1       0.050   3.018   0.279  1.00  0.00    -0.223 NA
HETATM    3  N   UNL     1      -1.999   4.216   0.778  1.00  0.00    -0.234 NA
HETATM    4  C   UNL     1      -2.025   1.848   0.197  1.00  0.00     0.048 A 
HETATM    5  C   UNL     1      -0.633   1.873   0.065  1.00  0.00     0.142 A 
HETATM    6  C   UNL     1      -2.629   3.047   0.552  1.00  0.00     0.114 A 
HETATM    7  C   UNL     1      -3.000   0.813   0.039  1.00  0.00     0.046 A 
HETATM    8  C   UNL     1      -4.283   1.257   0.275  1.00  0.00     0.061 A 
HETATM    9  C   UNL     1      -0.668   4.107   0.619  1.00  0.00     0.236 A 
ENDROOT
BRANCH   5  10
HETATM   10  N   UNL     1       0.073   0.708  -0.290  1.00  0.00    -0.340 N 
HETATM   11  H   UNL     1      -0.497  -0.133  -0.295  1.00  0.00     0.167 HD
BRANCH  10  12
HETATM   12  C   UNL     1       1.444   0.444  -0.489  1.00  0.00     0.035 A 
HETATM   13  C   UNL     1       1.956  -0.827  -0.226  1.00  0.00     0.056 A 
HETATM   14  C   UNL     1       3.312  -1.088  -0.424  1.00  0.00     0.069 A 
HETATM   15 CL   UNL     1       3.918  -2.668  -0.090  1.00  0.00    -0.081 Cl
HETATM   16  C   UNL     1       4.156  -0.078  -0.885  1.00  0.00     0.091 A 
HETATM   17  C   UNL     1       3.644   1.193  -1.149  1.00  0.00     0.041 A 
HETATM   18  C   UNL     1       2.288   1.454  -0.951  1.00  0.00     0.032 A 
BRANCH  16  19
HETATM   19  O   UNL     1       5.485  -0.304  -1.088  1.00  0.00    -0.345 OA
BRANCH  19  20
HETATM   20  C   UNL     1       6.399   0.490  -0.335  1.00  0.00     0.214 C 
BRANCH  20  21
HETATM   21  C   UNL     1       7.664  -0.288  -0.122  1.00  0.00    -0.031 A 
HETATM   22  C   UNL     1       7.793  -1.097   1.001  1.00  0.00     0.051 A 
HETATM   23  C   UNL     1       8.969  -1.821   1.199  1.00  0.00     0.117 A 
HETATM   24  F   UNL     1       9.101  -2.603   2.278  1.00  0.00    -0.206 F 
HETATM   25  C   UNL     1      10.008  -1.730   0.273  1.00  0.00     0.042 A 
HETATM   26  C   UNL     1       9.871  -0.915  -0.851  1.00  0.00     0.004 A 
HETATM   27  C   UNL     1       8.695  -0.192  -1.049  1.00  0.00     0.009 A 
ENDBRANCH  20  21
ENDBRANCH  19  20
ENDBRANCH  16  19
ENDBRANCH  10  12
ENDBRANCH   5  10
BRANCH   8  28
HETATM   28  C   UNL     1      -5.453   0.448   0.192  1.00  0.00    -0.052 C 
HETATM   29  C   UNL     1      -6.445  -0.239   0.122  1.00  0.00    -0.039 C 
BRANCH  29  30
HETATM   30  C   UNL     1      -7.619  -1.052   0.039  1.00  0.00     0.127 A 
HETATM   31  N   UNL     1      -8.646  -0.518  -0.646  1.00  0.00    -0.247 NA
HETATM   32  C   UNL     1      -9.755  -1.279  -0.729  1.00  0.00     0.168 A 
HETATM   33  C   UNL     1      -9.829  -2.525  -0.147  1.00  0.00     0.138 A 
HETATM   34  N   UNL     1      -8.797  -3.056   0.538  1.00  0.00    -0.239 NA
HETATM   35  C   UNL     1      -7.688  -2.295   0.621  1.00  0.00     0.160 A 
BRANCH  33  36
HETATM   36  N   UNL     1     -11.030  -3.257  -0.282  1.00  0.00    -0.383 N 
HETATM   37  H   UNL     1     -11.613  -3.085  -1.093  1.00  0.00     0.157 HD
HETATM   38  H   UNL     1     -11.064  -4.173   0.147  1.00  0.00     0.157 HD
ENDBRANCH  33  36
ENDBRANCH  29  30
ENDBRANCH   8  28
TORSDOF 8
