REMARK  11 active torsions:
REMARK  status: ('A' for Active; 'I' for Inactive)
REMARK    1  A    between atoms: O_5  and  C_18 
REMARK    2  A    between atoms: O_5  and  C_22 
REMARK    3  A    between atoms: O_6  and  C_27 
REMARK    4  A    between atoms: O_6  and  C_28 
REMARK    5  A    between atoms: O_7  and  C_25 
REMARK    6  A    between atoms: N_8  and  C_14 
REMARK    7  A    between atoms: N_9  and  C_17 
REMARK    8  A    between atoms: N_9  and  C_20 
REMARK    9  A    between atoms: C_14  and  C_18 
REMARK   10  A    between atoms: C_22  and  C_25 
REMARK   11  A    between atoms: C_29  and  C_34 
ROOT
HETATM    1 CL   UNL     1      -1.263   4.194   0.841  1.00  0.00    -0.080 Cl
HETATM    2  N   UNL     1      -1.641   0.219   0.632  1.00  0.00    -0.233 NA
HETATM    3  C   UNL     1       0.706   0.752   0.404  1.00  0.00     0.053 A 
HETATM    4  C   UNL     1       0.417   2.107   0.522  1.00  0.00     0.059 A 
HETATM    5  C   UNL     1      -0.349  -0.143   0.466  1.00  0.00     0.149 A 
HETATM    6  C   UNL     1      -0.900   2.519   0.695  1.00  0.00     0.089 A 
HETATM    7  C   UNL     1      -1.883   1.544   0.743  1.00  0.00     0.192 A 
ENDROOT
BRANCH   3   8
HETATM    8  N   UNL     1       2.033   0.304   0.228  1.00  0.00    -0.338 N 
HETATM    9  H   UNL     1       2.699   1.065   0.226  1.00  0.00     0.167 HD
BRANCH   8  10
HETATM   10  C   UNL     1       2.597  -0.976   0.086  1.00  0.00     0.159 A 
HETATM   11  N   UNL     1       1.879  -1.965  -0.488  1.00  0.00    -0.222 NA
HETATM   12  C   UNL     1       2.467  -3.176  -0.601  1.00  0.00     0.236 A 
HETATM   13  N   UNL     1       3.703  -3.552  -0.214  1.00  0.00    -0.240 NA
HETATM   14  C   UNL     1       4.404  -2.542   0.359  1.00  0.00     0.090 A 
HETATM   15  C   UNL     1       3.880  -1.263   0.518  1.00  0.00     0.110 A 
HETATM   16  C   UNL     1       5.717  -2.537   0.887  1.00  0.00     0.051 A 
HETATM   17  N   UNL     1       4.846  -0.500   1.124  1.00  0.00    -0.350 N 
HETATM   18  C   UNL     1       5.963  -1.263   1.353  1.00  0.00     0.094 A 
BRANCH  17  19
HETATM   19  C   UNL     1       4.740   0.897   1.484  1.00  0.00     0.155 C 
BRANCH  19  20
HETATM   20  C   UNL     1       5.204   1.824   0.368  1.00  0.00     0.187 C 
BRANCH  20  21
HETATM   21  O   UNL     1       4.384   1.640  -0.779  1.00  0.00    -0.387 OA
BRANCH  21  22
HETATM   22  C   UNL     1       4.784   2.488  -1.846  1.00  0.00     0.193 C 
BRANCH  22  23
HETATM   23  C   UNL     1       3.890   2.230  -3.044  1.00  0.00     0.190 C 
BRANCH  23  24
HETATM   24  O   UNL     1       4.035   0.873  -3.447  1.00  0.00    -0.399 OA
HETATM   25  H   UNL     1       3.448   0.739  -4.210  1.00  0.00     0.209 HD
ENDBRANCH  23  24
ENDBRANCH  22  23
ENDBRANCH  21  22
ENDBRANCH  20  21
ENDBRANCH  19  20
ENDBRANCH  17  19
ENDBRANCH   8  10
ENDBRANCH   3   8
BRANCH   7  26
HETATM   26  O   UNL     1      -3.196   1.900   0.912  1.00  0.00    -0.291 OA
BRANCH  26  27
HETATM   27  C   UNL     1      -4.128   0.883   0.951  1.00  0.00     0.078 A 
HETATM   28  C   UNL     1      -4.734   0.445  -0.227  1.00  0.00     0.053 A 
HETATM   29  C   UNL     1      -5.676  -0.582  -0.186  1.00  0.00     0.050 A 
HETATM   30  C   UNL     1      -6.014  -1.171   1.032  1.00  0.00     0.016 A 
HETATM   31  C   UNL     1      -5.409  -0.733   2.210  1.00  0.00     0.004 A 
HETATM   32  C   UNL     1      -4.466   0.294   2.170  1.00  0.00     0.037 A 
BRANCH  29  33
HETATM   33  C   UNL     1      -6.324  -1.050  -1.445  1.00  0.00     0.417 C 
HETATM   34  F   UNL     1      -7.225  -2.059  -1.256  1.00  0.00    -0.166 F 
HETATM   35  F   UNL     1      -7.018  -0.072  -2.100  1.00  0.00    -0.166 F 
HETATM   36  F   UNL     1      -5.423  -1.530  -2.352  1.00  0.00    -0.166 F 
ENDBRANCH  29  33
ENDBRANCH  26  27
ENDBRANCH   7  26
TORSDOF 11
