REMARK  9 active torsions:
REMARK  status: ('A' for Active; 'I' for Inactive)
REMARK    1  A    between atoms: S_3  and  C_20 
REMARK    2  A    between atoms: O_7  and  C_29 
REMARK    3  A    between atoms: O_7  and  C_30 
REMARK    4  A    between atoms: N_8  and  C_13 
REMARK    5  A    between atoms: N_9  and  C_15 
REMARK       I    between atoms: N_9  and  C_21 
REMARK    6  A    between atoms: N_10  and  C_18 
REMARK    7  A    between atoms: N_10  and  C_22 
REMARK    8  A    between atoms: C_13  and  C_15 
REMARK    9  A    between atoms: C_20  and  C_21 
ROOT
HETATM    1  N   UNL     1       4.154  -1.602   0.401  1.00  0.00    -0.350 N 
HETATM    2  N   UNL     1       3.030  -4.860  -0.327  1.00  0.00    -0.240 NA
HETATM    3  N   UNL     1       1.066  -3.426  -0.429  1.00  0.00    -0.222 NA
HETATM    4  C   UNL     1       3.157  -2.489   0.084  1.00  0.00     0.110 A 
HETATM    5  C   UNL     1       3.742  -3.747  -0.022  1.00  0.00     0.090 A 
HETATM    6  C   UNL     1       5.351  -2.265   0.498  1.00  0.00     0.094 A 
HETATM    7  C   UNL     1       1.798  -2.332  -0.123  1.00  0.00     0.159 A 
HETATM    8  C   UNL     1       5.126  -3.600   0.240  1.00  0.00     0.051 A 
HETATM    9  C   UNL     1       1.718  -4.607  -0.511  1.00  0.00     0.236 A 
ENDROOT
BRANCH   7  10
HETATM   10  N   UNL     1       1.170  -1.078  -0.025  1.00  0.00    -0.339 N 
HETATM   11  H   UNL     1       1.765  -0.288  -0.229  1.00  0.00     0.167 HD
BRANCH  10  12
HETATM   12  C   UNL     1      -0.133  -0.686   0.349  1.00  0.00     0.035 A 
HETATM   13  C   UNL     1      -0.481   0.665   0.355  1.00  0.00     0.056 A 
HETATM   14  C   UNL     1      -1.768   1.053   0.726  1.00  0.00     0.070 A 
HETATM   15 CL   UNL     1      -2.171   2.730   0.724  1.00  0.00    -0.081 Cl
HETATM   16  C   UNL     1      -2.709   0.090   1.091  1.00  0.00     0.098 A 
HETATM   17  C   UNL     1      -2.361  -1.261   1.085  1.00  0.00     0.041 A 
HETATM   18  C   UNL     1      -1.074  -1.649   0.715  1.00  0.00     0.032 A 
BRANCH  16  19
HETATM   19  O   UNL     1      -3.974   0.440   1.457  1.00  0.00    -0.309 OA
BRANCH  19  20
HETATM   20  C   UNL     1      -5.022  -0.063   0.706  1.00  0.00     0.077 A 
HETATM   21  C   UNL     1      -4.954  -0.043  -0.687  1.00  0.00     0.061 A 
HETATM   22  C   UNL     1      -6.011  -0.549  -1.444  1.00  0.00     0.036 A 
HETATM   23 CL   UNL     1      -5.927  -0.526  -3.163  1.00  0.00    -0.084 Cl
HETATM   24  C   UNL     1      -7.136  -1.074  -0.809  1.00  0.00     0.024 A 
HETATM   25  C   UNL     1      -7.204  -1.094   0.584  1.00  0.00     0.004 A 
HETATM   26  C   UNL     1      -6.147  -0.589   1.342  1.00  0.00     0.037 A 
ENDBRANCH  19  20
ENDBRANCH  16  19
ENDBRANCH  10  12
ENDBRANCH   7  10
BRANCH   1  27
HETATM   27  C   UNL     1       4.004  -0.165   0.611  1.00  0.00     0.148 C 
BRANCH  27  28
HETATM   28  C   UNL     1       4.178   0.648  -0.667  1.00  0.00     0.143 C 
BRANCH  28  29
HETATM   29  N   UNL     1       4.051   2.069  -0.442  1.00  0.00    -0.359 N 
HETATM   30  C   UNL     1       3.085   2.847  -1.065  1.00  0.00     0.231 C 
HETATM   31  O   UNL     1       2.247   2.429  -1.860  1.00  0.00    -0.273 OA
HETATM   32  H   UNL     1       4.729   2.504   0.176  1.00  0.00     0.162 HD
BRANCH  30  33
HETATM   33  C   UNL     1       3.185   4.291  -0.639  1.00  0.00     0.242 C 
BRANCH  33  34
HETATM   34  S   UNL     1       1.716   4.864   0.144  1.00  0.00     0.149 S 
HETATM   35  O   UNL     1       0.644   4.873  -0.839  1.00  0.00    -0.228 OA
HETATM   36  O   UNL     1       1.557   4.150   1.401  1.00  0.00    -0.228 OA
HETATM   37  C   UNL     1       2.091   6.559   0.539  1.00  0.00     0.161 C 
ENDBRANCH  33  34
ENDBRANCH  30  33
ENDBRANCH  28  29
ENDBRANCH  27  28
ENDBRANCH   1  27
TORSDOF 9
