REMARK  7 active torsions:
REMARK  status: ('A' for Active; 'I' for Inactive)
REMARK    1  A    between atoms: O_1  and  C_13 
REMARK    2  A    between atoms: O_2  and  C_21 
REMARK    3  A    between atoms: O_2  and  C_26 
REMARK    4  A    between atoms: N_4  and  C_12 
REMARK    5  A    between atoms: N_4  and  C_15 
REMARK    6  A    between atoms: N_5  and  C_10 
REMARK       I    between atoms: N_5  and  C_16 
REMARK    7  A    between atoms: C_16  and  C_20 
ROOT
HETATM    1  N   UNL     1      -2.002   3.566   0.292  1.00  0.00    -0.241 NA
HETATM    2  N   UNL     1      -0.040   2.251   0.769  1.00  0.00    -0.224 NA
HETATM    3  C   UNL     1      -2.162   1.173   0.349  1.00  0.00     0.041 A 
HETATM    4  C   UNL     1      -2.735   2.444   0.176  1.00  0.00     0.075 A 
HETATM    5  C   UNL     1      -4.294   0.103  -0.073  1.00  0.00     0.069 A 
HETATM    6  C   UNL     1      -2.938   0.008   0.225  1.00  0.00     0.050 A 
HETATM    7  C   UNL     1      -0.802   1.148   0.646  1.00  0.00     0.142 A 
HETATM    8  C   UNL     1      -4.872   1.355  -0.247  1.00  0.00     0.097 A 
HETATM    9  C   UNL     1      -4.093   2.510  -0.122  1.00  0.00     0.071 A 
HETATM   10  C   UNL     1      -0.695   3.408   0.583  1.00  0.00     0.236 A 
ENDROOT
BRANCH   7  11
HETATM   11  N   UNL     1      -0.155  -0.098   0.834  1.00  0.00    -0.340 N 
HETATM   12  H   UNL     1      -0.680  -0.728   1.434  1.00  0.00     0.167 HD
BRANCH  11  13
HETATM   13  C   UNL     1       1.163  -0.525   0.607  1.00  0.00     0.033 A 
HETATM   14  C   UNL     1       1.718  -1.530   1.400  1.00  0.00     0.032 A 
HETATM   15  C   UNL     1       3.028  -1.952   1.175  1.00  0.00     0.039 A 
HETATM   16  C   UNL     1       3.784  -1.370   0.157  1.00  0.00     0.076 A 
HETATM   17  C   UNL     1       3.229  -0.365  -0.635  1.00  0.00     0.039 A 
HETATM   18  C   UNL     1       1.919   0.058  -0.411  1.00  0.00     0.032 A 
BRANCH  16  19
HETATM   19  O   UNL     1       5.062  -1.782  -0.062  1.00  0.00    -0.311 OA
BRANCH  19  20
HETATM   20  C   UNL     1       6.027  -0.809  -0.258  1.00  0.00     0.076 A 
HETATM   21  C   UNL     1       6.071   0.309   0.575  1.00  0.00     0.037 A 
HETATM   22  C   UNL     1       7.043   1.290   0.377  1.00  0.00     0.003 A 
HETATM   23  C   UNL     1       7.972   1.152  -0.654  1.00  0.00     0.000 A 
HETATM   24  C   UNL     1       7.929   0.034  -1.488  1.00  0.00     0.003 A 
HETATM   25  C   UNL     1       6.956  -0.946  -1.290  1.00  0.00     0.037 A 
ENDBRANCH  19  20
ENDBRANCH  16  19
ENDBRANCH  11  13
ENDBRANCH   7  11
BRANCH   5  26
HETATM   26  N   UNL     1      -5.056  -1.061  -0.195  1.00  0.00    -0.325 N 
HETATM   27  C   UNL     1      -4.636  -2.392  -0.053  1.00  0.00     0.221 C 
HETATM   28  O   UNL     1      -3.503  -2.782   0.208  1.00  0.00    -0.273 OA
HETATM   29  H   UNL     1      -6.040  -0.911  -0.410  1.00  0.00     0.169 HD
BRANCH  27  30
HETATM   30  C   UNL     1      -5.792  -3.358  -0.268  1.00  0.00     0.098 C 
HETATM   31  C   UNL     1      -5.370  -4.812  -0.157  1.00  0.00     0.014 C 
ENDBRANCH  27  30
ENDBRANCH   5  26
BRANCH   8  32
HETATM   32  O   UNL     1      -6.198   1.481  -0.540  1.00  0.00    -0.354 OA
HETATM   33  C   UNL     1      -6.557   1.493  -1.919  1.00  0.00     0.210 C 
ENDBRANCH   8  32
TORSDOF 7
