REMARK  11 active torsions:
REMARK  status: ('A' for Active; 'I' for Inactive)
REMARK    1  A    between atoms: O_3  and  C_16 
REMARK    2  A    between atoms: O_3  and  C_23 
REMARK    3  A    between atoms: O_6  and  N_14 
REMARK    4  A    between atoms: N_7  and  C_22 
REMARK    5  A    between atoms: N_8  and  C_21 
REMARK    6  A    between atoms: N_8  and  C_27 
REMARK    7  A    between atoms: N_9  and  C_17 
REMARK       I    between atoms: N_9  and  C_32 
REMARK       I    between atoms: N_14  and  C_29 
REMARK    8  A    between atoms: C_22  and  C_26 
REMARK    9  A    between atoms: C_23  and  C_24 
REMARK   10  A    between atoms: C_26  and  C_29 
REMARK   11  A    between atoms: C_32  and  C_36 
ROOT
HETATM    1  N   UNL     1       2.150   3.861  -0.133  1.00  0.00    -0.241 NA
HETATM    2  N   UNL     1       4.131   2.494  -0.012  1.00  0.00    -0.224 NA
HETATM    3  C   UNL     1       1.966   1.481  -0.370  1.00  0.00     0.041 A 
HETATM    4  C   UNL     1      -0.784   1.740  -0.684  1.00  0.00     0.098 A 
HETATM    5  C   UNL     1      -0.208   0.475  -0.727  1.00  0.00     0.069 A 
HETATM    6  C   UNL     1       1.396   2.764  -0.324  1.00  0.00     0.075 A 
HETATM    7  C   UNL     1       1.168   0.342  -0.570  1.00  0.00     0.050 A 
HETATM    8  C   UNL     1       0.016   2.868  -0.484  1.00  0.00     0.071 A 
HETATM    9  C   UNL     1       3.347   1.417  -0.205  1.00  0.00     0.142 A 
HETATM   10  C   UNL     1       3.477   3.666   0.013  1.00  0.00     0.236 A 
ENDROOT
BRANCH   4  11
HETATM   11  O   UNL     1      -2.130   1.903  -0.834  1.00  0.00    -0.343 OA
BRANCH  11  12
HETATM   12  C   UNL     1      -2.832   2.510   0.249  1.00  0.00     0.238 C 
BRANCH  12  13
HETATM   13  C   UNL     1      -4.226   1.956   0.299  1.00  0.00     0.093 A 
HETATM   14  N   UNL     1      -5.176   2.339  -0.606  1.00  0.00    -0.161 NA
HETATM   15  N   UNL     1      -6.298   1.688  -0.319  1.00  0.00     0.004 NA
HETATM   16  N   UNL     1      -6.048   0.913   0.749  1.00  0.00    -0.283 N 
HETATM   17  C   UNL     1      -4.763   1.045   1.174  1.00  0.00     0.138 A 
BRANCH  16  18
HETATM   18  C   UNL     1      -7.078   0.072   1.305  1.00  0.00     0.155 C 
BRANCH  18  19
HETATM   19  C   UNL     1      -7.295  -1.186   0.466  1.00  0.00     0.126 C 
BRANCH  19  20
HETATM   20  C   UNL     1      -6.031  -2.012   0.324  1.00  0.00     0.242 C 
HETATM   21  O   UNL     1      -5.226  -1.861  -0.592  1.00  0.00    -0.271 OA
HETATM   22  N   UNL     1      -5.915  -2.939   1.332  1.00  0.00    -0.237 N 
HETATM   23  H   UNL     1      -6.616  -3.165   2.028  1.00  0.00     0.197 HD
BRANCH  22  24
HETATM   24  O   UNL     1      -4.780  -3.760   1.283  1.00  0.00    -0.287 OA
HETATM   25  H   UNL     1      -4.179  -3.256   1.857  1.00  0.00     0.244 HD
ENDBRANCH  22  24
ENDBRANCH  19  20
ENDBRANCH  18  19
ENDBRANCH  16  18
ENDBRANCH  12  13
ENDBRANCH  11  12
ENDBRANCH   4  11
BRANCH   5  26
HETATM   26  N   UNL     1      -0.994  -0.663  -0.926  1.00  0.00    -0.321 N 
HETATM   27  C   UNL     1      -0.576  -1.998  -0.994  1.00  0.00     0.245 C 
HETATM   28  O   UNL     1       0.570  -2.421  -0.891  1.00  0.00    -0.268 OA
HETATM   29  H   UNL     1      -1.989  -0.477  -1.030  1.00  0.00     0.169 HD
BRANCH  27  30
HETATM   30  C   UNL     1      -1.724  -2.923  -1.218  1.00  0.00     0.064 C 
HETATM   31  C   UNL     1      -1.528  -4.242  -1.311  1.00  0.00     0.017 C 
ENDBRANCH  27  30
ENDBRANCH   5  26
BRANCH   9  32
HETATM   32  N   UNL     1       3.993   0.157  -0.239  1.00  0.00    -0.338 N 
HETATM   33  H   UNL     1       3.686  -0.425  -1.014  1.00  0.00     0.167 HD
BRANCH  32  34
HETATM   34  C   UNL     1       5.154  -0.329   0.384  1.00  0.00     0.074 A 
HETATM   35  C   UNL     1       5.919  -1.319  -0.233  1.00  0.00     0.164 A 
HETATM   36  F   UNL     1       5.544  -1.805  -1.426  1.00  0.00    -0.202 F 
HETATM   37  C   UNL     1       7.071  -1.800   0.389  1.00  0.00     0.074 A 
HETATM   38 CL   UNL     1       8.020  -3.021  -0.367  1.00  0.00    -0.081 Cl
HETATM   39  C   UNL     1       7.458  -1.291   1.629  1.00  0.00     0.027 A 
HETATM   40  C   UNL     1       6.693  -0.301   2.246  1.00  0.00     0.004 A 
HETATM   41  C   UNL     1       5.541   0.179   1.624  1.00  0.00     0.033 A 
ENDBRANCH  32  34
ENDBRANCH   9  32
TORSDOF 11
