REMARK  11 active torsions:
REMARK  status: ('A' for Active; 'I' for Inactive)
REMARK    1  A    between atoms: O_5  and  C_17 
REMARK    2  A    between atoms: O_5  and  C_21 
REMARK    3  A    between atoms: O_6  and  C_24 
REMARK    4  A    between atoms: O_6  and  C_28 
REMARK    5  A    between atoms: O_7  and  C_27 
REMARK    6  A    between atoms: N_8  and  C_13 
REMARK    7  A    between atoms: N_9  and  C_16 
REMARK    8  A    between atoms: N_9  and  C_19 
REMARK    9  A    between atoms: C_13  and  C_17 
REMARK   10  A    between atoms: C_21  and  C_27 
REMARK   11  A    between atoms: C_29  and  C_34 
ROOT
HETATM    1 CL   UNL     1      -1.880   1.712   3.228  1.00  0.00    -0.081 Cl
HETATM    2  C   UNL     1       0.657  -0.295   0.883  1.00  0.00     0.035 A 
HETATM    3  C   UNL     1       0.097   0.664   1.727  1.00  0.00     0.056 A 
HETATM    4  C   UNL     1      -0.092  -1.406   0.496  1.00  0.00     0.032 A 
HETATM    5  C   UNL     1      -1.961  -0.600   1.798  1.00  0.00     0.098 A 
HETATM    6  C   UNL     1      -1.212   0.511   2.185  1.00  0.00     0.070 A 
HETATM    7  C   UNL     1      -1.401  -1.559   0.954  1.00  0.00     0.041 A 
ENDROOT
BRANCH   2   8
HETATM    8  N   UNL     1       1.981  -0.140   0.420  1.00  0.00    -0.339 N 
HETATM    9  H   UNL     1       2.425   0.691   0.787  1.00  0.00     0.167 HD
BRANCH   8  10
HETATM   10  C   UNL     1       2.796  -0.921  -0.419  1.00  0.00     0.159 A 
HETATM   11  N   UNL     1       2.233  -1.670  -1.392  1.00  0.00    -0.222 NA
HETATM   12  C   UNL     1       3.061  -2.402  -2.171  1.00  0.00     0.236 A 
HETATM   13  N   UNL     1       4.406  -2.496  -2.116  1.00  0.00    -0.240 NA
HETATM   14  C   UNL     1       4.946  -1.735  -1.132  1.00  0.00     0.090 A 
HETATM   15  C   UNL     1       4.173  -0.950  -0.282  1.00  0.00     0.110 A 
HETATM   16  C   UNL     1       6.301  -1.566  -0.757  1.00  0.00     0.051 A 
HETATM   17  N   UNL     1       5.031  -0.320   0.584  1.00  0.00    -0.350 N 
HETATM   18  C   UNL     1       6.323  -0.687   0.304  1.00  0.00     0.094 A 
BRANCH  17  19
HETATM   19  C   UNL     1       4.667   0.596   1.642  1.00  0.00     0.155 C 
BRANCH  19  20
HETATM   20  C   UNL     1       4.634   2.045   1.174  1.00  0.00     0.187 C 
BRANCH  20  21
HETATM   21  O   UNL     1       3.653   2.196   0.156  1.00  0.00    -0.387 OA
BRANCH  21  22
HETATM   22  C   UNL     1       3.588   3.537  -0.311  1.00  0.00     0.193 C 
BRANCH  22  23
HETATM   23  C   UNL     1       2.546   3.629  -1.408  1.00  0.00     0.190 C 
BRANCH  23  24
HETATM   24  O   UNL     1       1.287   3.219  -0.887  1.00  0.00    -0.399 OA
HETATM   25  H   UNL     1       0.644   3.282  -1.614  1.00  0.00     0.209 HD
ENDBRANCH  23  24
ENDBRANCH  22  23
ENDBRANCH  21  22
ENDBRANCH  20  21
ENDBRANCH  19  20
ENDBRANCH  17  19
ENDBRANCH   8  10
ENDBRANCH   2   8
BRANCH   5  26
HETATM   26  O   UNL     1      -3.242  -0.776   2.230  1.00  0.00    -0.309 OA
BRANCH  26  27
HETATM   27  C   UNL     1      -4.237  -0.847   1.271  1.00  0.00     0.076 A 
HETATM   28  C   UNL     1      -4.257   0.065   0.216  1.00  0.00     0.053 A 
HETATM   29  C   UNL     1      -5.261  -0.007  -0.750  1.00  0.00     0.050 A 
HETATM   30  C   UNL     1      -6.245  -0.991  -0.660  1.00  0.00     0.016 A 
HETATM   31  C   UNL     1      -6.226  -1.903   0.395  1.00  0.00     0.004 A 
HETATM   32  C   UNL     1      -5.222  -1.831   1.361  1.00  0.00     0.037 A 
BRANCH  29  33
HETATM   33  C   UNL     1      -5.282   0.968  -1.878  1.00  0.00     0.417 C 
HETATM   34  F   UNL     1      -6.320   0.779  -2.746  1.00  0.00    -0.166 F 
HETATM   35  F   UNL     1      -5.388   2.269  -1.474  1.00  0.00    -0.166 F 
HETATM   36  F   UNL     1      -4.152   0.912  -2.641  1.00  0.00    -0.166 F 
ENDBRANCH  29  33
ENDBRANCH  26  27
ENDBRANCH   5  26
TORSDOF 11
