REMARK  9 active torsions:
REMARK  status: ('A' for Active; 'I' for Inactive)
REMARK    1  A    between atoms: O_3  and  C_17 
REMARK    2  A    between atoms: O_5  and  C_27 
REMARK    3  A    between atoms: O_5  and  C_30 
REMARK    4  A    between atoms: N_6  and  C_12 
REMARK    5  A    between atoms: N_7  and  C_14 
REMARK       I    between atoms: N_7  and  C_20 
REMARK    6  A    between atoms: N_8  and  C_18 
REMARK    7  A    between atoms: N_8  and  C_23 
REMARK    8  A    between atoms: C_12  and  C_14 
REMARK    9  A    between atoms: C_17  and  C_20 
ROOT
HETATM    1  N   UNL     1       3.929   1.347   0.458  1.00  0.00    -0.350 N 
HETATM    2  N   UNL     1       3.036   3.941  -1.752  1.00  0.00    -0.240 NA
HETATM    3  N   UNL     1       1.006   3.344  -0.549  1.00  0.00    -0.222 NA
HETATM    4  C   UNL     1       3.004   2.206  -0.079  1.00  0.00     0.110 A 
HETATM    5  C   UNL     1       3.664   2.982  -1.027  1.00  0.00     0.090 A 
HETATM    6  C   UNL     1       5.153   1.558  -0.125  1.00  0.00     0.094 A 
HETATM    7  C   UNL     1       1.654   2.394   0.159  1.00  0.00     0.159 A 
HETATM    8  C   UNL     1       5.018   2.569  -1.052  1.00  0.00     0.051 A 
HETATM    9  C   UNL     1       1.726   4.050  -1.449  1.00  0.00     0.236 A 
ENDROOT
BRANCH   7  10
HETATM   10  N   UNL     1       0.953   1.632   1.109  1.00  0.00    -0.339 N 
HETATM   11  H   UNL     1       1.513   1.243   1.851  1.00  0.00     0.167 HD
BRANCH  10  12
HETATM   12  C   UNL     1      -0.391   1.208   1.196  1.00  0.00     0.035 A 
HETATM   13  C   UNL     1      -0.812   0.442   2.283  1.00  0.00     0.056 A 
HETATM   14  C   UNL     1      -2.140   0.024   2.368  1.00  0.00     0.070 A 
HETATM   15 CL   UNL     1      -2.634  -0.925   3.722  1.00  0.00    -0.081 Cl
HETATM   16  C   UNL     1      -3.047   0.373   1.368  1.00  0.00     0.098 A 
HETATM   17  C   UNL     1      -2.626   1.140   0.281  1.00  0.00     0.041 A 
HETATM   18  C   UNL     1      -1.298   1.558   0.196  1.00  0.00     0.032 A 
BRANCH  16  19
HETATM   19  O   UNL     1      -4.351  -0.022   1.425  1.00  0.00    -0.308 OA
BRANCH  19  20
HETATM   20  C   UNL     1      -4.829  -0.806   0.390  1.00  0.00     0.089 A 
HETATM   21  C   UNL     1      -5.909  -0.378  -0.414  1.00  0.00     0.034 A 
HETATM   22  C   UNL     1      -6.344  -1.216  -1.443  1.00  0.00     0.038 A 
HETATM   23  C   UNL     1      -6.706   0.811  -0.401  1.00  0.00     0.141 A 
HETATM   24  S   UNL     1      -7.656  -0.445  -2.246  1.00  0.00     0.011 SA
HETATM   25  C   UNL     1      -5.747  -2.460  -1.699  1.00  0.00     0.021 A 
HETATM   26  N   UNL     1      -7.670   0.921  -1.309  1.00  0.00    -0.222 NA
HETATM   27  C   UNL     1      -4.681  -2.858  -0.888  1.00  0.00     0.004 A 
HETATM   28  C   UNL     1      -4.227  -2.044   0.143  1.00  0.00     0.038 A 
ENDBRANCH  19  20
ENDBRANCH  16  19
ENDBRANCH  10  12
ENDBRANCH   7  10
BRANCH   1  29
HETATM   29  C   UNL     1       3.679   0.313   1.529  1.00  0.00     0.148 C 
BRANCH  29  30
HETATM   30  C   UNL     1       2.963  -0.928   1.004  1.00  0.00     0.143 C 
BRANCH  30  31
HETATM   31  N   UNL     1       3.721  -1.616  -0.014  1.00  0.00    -0.357 N 
HETATM   32  C   UNL     1       4.629  -2.618   0.294  1.00  0.00     0.251 C 
HETATM   33  O   UNL     1       4.867  -3.005   1.439  1.00  0.00    -0.270 OA
HETATM   34  H   UNL     1       3.572  -1.346  -0.981  1.00  0.00     0.162 HD
BRANCH  32  35
HETATM   35  C   UNL     1       5.330  -3.219  -0.930  1.00  0.00     0.131 C 
HETATM   36  C   UNL     1       6.111  -2.154  -1.694  1.00  0.00     0.056 C 
HETATM   37  C   UNL     1       4.344  -3.946  -1.843  1.00  0.00     0.056 C 
BRANCH  35  38
HETATM   38  O   UNL     1       6.280  -4.169  -0.450  1.00  0.00    -0.381 OA
HETATM   39  H   UNL     1       5.791  -4.900  -0.034  1.00  0.00     0.211 HD
ENDBRANCH  35  38
ENDBRANCH  32  35
ENDBRANCH  30  31
ENDBRANCH  29  30
ENDBRANCH   1  29
TORSDOF 9
