REMARK  9 active torsions:
REMARK  status: ('A' for Active; 'I' for Inactive)
REMARK    1  A    between atoms: O_4  and  C_27 
REMARK    2  A    between atoms: O_4  and  C_30 
REMARK    3  A    between atoms: N_5  and  C_12 
REMARK    4  A    between atoms: N_6  and  C_13 
REMARK       I    between atoms: N_6  and  C_18 
REMARK    5  A    between atoms: N_7  and  C_14 
REMARK    6  A    between atoms: N_8  and  C_19 
REMARK    7  A    between atoms: N_8  and  C_23 
REMARK    8  A    between atoms: C_12  and  C_13 
REMARK    9  A    between atoms: C_14  and  C_18 
ROOT
HETATM    1  N   UNL     1       3.930  -1.349  -0.465  1.00  0.00    -0.350 N 
HETATM    2  N   UNL     1       3.041  -3.927   1.766  1.00  0.00    -0.240 NA
HETATM    3  N   UNL     1       1.009  -3.339   0.562  1.00  0.00    -0.222 NA
HETATM    4  C   UNL     1       3.007  -2.204   0.080  1.00  0.00     0.110 A 
HETATM    5  C   UNL     1       3.668  -2.974   1.034  1.00  0.00     0.090 A 
HETATM    6  C   UNL     1       5.155  -1.556   0.118  1.00  0.00     0.094 A 
HETATM    7  C   UNL     1       1.657  -2.394  -0.154  1.00  0.00     0.159 A 
HETATM    8  C   UNL     1       5.022  -2.560   1.053  1.00  0.00     0.051 A 
HETATM    9  C   UNL     1       1.731  -4.038   1.466  1.00  0.00     0.236 A 
ENDROOT
BRANCH   7  10
HETATM   10  N   UNL     1       0.953  -1.638  -1.108  1.00  0.00    -0.339 N 
HETATM   11  H   UNL     1       1.512  -1.254  -1.853  1.00  0.00     0.167 HD
BRANCH  10  12
HETATM   12  C   UNL     1      -0.391  -1.216  -1.195  1.00  0.00     0.035 A 
HETATM   13  C   UNL     1      -0.814  -0.456  -2.285  1.00  0.00     0.056 A 
HETATM   14  C   UNL     1      -2.143  -0.039  -2.371  1.00  0.00     0.070 A 
HETATM   15 CL   UNL     1      -2.639   0.901  -3.730  1.00  0.00    -0.081 Cl
HETATM   16  C   UNL     1      -3.048  -0.382  -1.367  1.00  0.00     0.098 A 
HETATM   17  C   UNL     1      -2.624  -1.142  -0.276  1.00  0.00     0.041 A 
HETATM   18  C   UNL     1      -1.296  -1.559  -0.190  1.00  0.00     0.032 A 
BRANCH  16  19
HETATM   19  O   UNL     1      -4.352   0.012  -1.424  1.00  0.00    -0.308 OA
BRANCH  19  20
HETATM   20  C   UNL     1      -4.829   0.802  -0.393  1.00  0.00     0.089 A 
HETATM   21  C   UNL     1      -5.906   0.379   0.416  1.00  0.00     0.034 A 
HETATM   22  C   UNL     1      -6.340   1.223   1.440  1.00  0.00     0.038 A 
HETATM   23  C   UNL     1      -6.703  -0.811   0.411  1.00  0.00     0.141 A 
HETATM   24  S   UNL     1      -7.650   0.456   2.250  1.00  0.00     0.011 SA
HETATM   25  C   UNL     1      -5.742   2.469   1.688  1.00  0.00     0.021 A 
HETATM   26  N   UNL     1      -7.666  -0.915   1.322  1.00  0.00    -0.222 NA
HETATM   27  C   UNL     1      -4.679   2.862   0.873  1.00  0.00     0.004 A 
HETATM   28  C   UNL     1      -4.226   2.042  -0.155  1.00  0.00     0.038 A 
ENDBRANCH  19  20
ENDBRANCH  16  19
ENDBRANCH  10  12
ENDBRANCH   7  10
BRANCH   1  29
HETATM   29  C   UNL     1       3.679  -0.322  -1.541  1.00  0.00     0.148 C 
BRANCH  29  30
HETATM   30  C   UNL     1       2.962   0.922  -1.022  1.00  0.00     0.143 C 
BRANCH  30  31
HETATM   31  N   UNL     1       3.722   1.617  -0.009  1.00  0.00    -0.357 N 
HETATM   32  C   UNL     1       4.634   2.621  -0.306  1.00  0.00     0.255 C 
HETATM   33  O   UNL     1       4.877   3.008  -1.449  1.00  0.00    -0.271 OA
HETATM   34  H   UNL     1       3.570   1.345   0.957  1.00  0.00     0.162 HD
BRANCH  32  35
HETATM   35  C   UNL     1       5.320   3.218   0.937  1.00  0.00     0.227 C 
HETATM   36  C   UNL     1       6.093   2.144   1.708  1.00  0.00     0.059 C 
HETATM   37  C   UNL     1       4.302   3.918   1.842  1.00  0.00     0.059 C 
BRANCH  35  38
HETATM   38  N   UNL     1       6.284   4.226   0.472  1.00  0.00     0.096 N 
HETATM   39  H   UNL     1       5.804   4.946  -0.066  1.00  0.00     0.314 HD
HETATM   40  H   UNL     1       6.964   3.796  -0.153  1.00  0.00     0.314 HD
ENDBRANCH  35  38
ENDBRANCH  32  35
ENDBRANCH  30  31
ENDBRANCH  29  30
ENDBRANCH   1  29
TORSDOF 9
