REMARK  6 active torsions:
REMARK  status: ('A' for Active; 'I' for Inactive)
REMARK    1  A    between atoms: O_4  and  N_8 
REMARK       I    between atoms: N_6  and  C_17 
REMARK       I    between atoms: N_7  and  C_15 
REMARK       I    between atoms: N_8  and  C_16 
REMARK    2  A    between atoms: C_9  and  C_14 
REMARK    3  A    between atoms: C_10  and  C_16 
REMARK    4  A    between atoms: C_12  and  C_15 
REMARK    5  A    between atoms: C_14  and  C_17 
REMARK    6  A    between atoms: C_25  and  C_27 
ROOT
HETATM    1  N   UNL     1       0.508  -0.636   0.810  1.00  0.00     0.098 N 
HETATM    2  C   UNL     1       2.817  -0.270   1.698  1.00  0.00     0.023 C 
HETATM    3  C   UNL     1       1.709   1.457   0.185  1.00  0.00     0.123 C 
HETATM    4  C   UNL     1       2.725   1.212   1.308  1.00  0.00     0.023 C 
HETATM    5  C   UNL     1       0.363   0.789   0.499  1.00  0.00     0.324 C 
HETATM    6  C   UNL     1       1.410  -0.836   1.946  1.00  0.00     0.275 C 
HETATM    7  H   UNL     1       0.891  -1.122  -0.001  1.00  0.00     0.317 HD
ENDROOT
BRANCH   5   8
HETATM    8  C   UNL     1      -0.544   0.843  -0.694  1.00  0.00     0.254 C 
HETATM    9  O   UNL     1      -0.055   0.868  -1.826  1.00  0.00    -0.271 OA
HETATM   10  N   UNL     1      -1.916   0.855  -0.429  1.00  0.00    -0.347 N 
HETATM   11  C   UNL     1      -2.859   1.072  -1.526  1.00  0.00     0.130 C 
HETATM   12  C   UNL     1      -2.493   0.825   0.921  1.00  0.00     0.153 C 
HETATM   13  C   UNL     1      -3.951   0.006  -1.519  1.00  0.00     0.059 C 
HETATM   14  C   UNL     1      -4.551  -0.169  -0.145  1.00  0.00    -0.049 C 
HETATM   15  C   UNL     1      -3.868   0.220   0.948  1.00  0.00     0.001 C 
BRANCH  14  16
HETATM   16  C   UNL     1      -5.892  -0.794  -0.044  1.00  0.00    -0.030 A 
HETATM   17  C   UNL     1      -6.944  -0.095   0.547  1.00  0.00     0.012 A 
HETATM   18  C   UNL     1      -8.205  -0.683   0.643  1.00  0.00     0.001 A 
HETATM   19  C   UNL     1      -8.414  -1.970   0.148  1.00  0.00     0.000 A 
HETATM   20  C   UNL     1      -7.362  -2.669  -0.443  1.00  0.00     0.001 A 
HETATM   21  C   UNL     1      -6.101  -2.081  -0.539  1.00  0.00     0.012 A 
ENDBRANCH  14  16
ENDBRANCH   5   8
BRANCH   3  22
HETATM   22  C   UNL     1       1.529   2.941   0.044  1.00  0.00     0.247 C 
HETATM   23  O   UNL     1       1.095   3.624   0.969  1.00  0.00    -0.271 OA
HETATM   24  N   UNL     1       1.904   3.412  -1.186  1.00  0.00    -0.237 N 
HETATM   25  H   UNL     1       2.381   2.893  -1.915  1.00  0.00     0.197 HD
BRANCH  24  26
HETATM   26  O   UNL     1       1.770   4.794  -1.376  1.00  0.00    -0.287 OA
HETATM   27  H   UNL     1       0.899   4.825  -1.807  1.00  0.00     0.244 HD
ENDBRANCH  24  26
ENDBRANCH   3  22
BRANCH   2  28
HETATM   28  C   UNL     1       3.588  -1.079   0.652  1.00  0.00     0.109 C 
BRANCH  28  29
HETATM   29  C   UNL     1       5.070  -0.853   0.817  1.00  0.00     0.220 C 
HETATM   30  O   UNL     1       5.491  -0.092   1.690  1.00  0.00    -0.273 OA
HETATM   31  N   UNL     1       5.881  -1.542  -0.066  1.00  0.00    -0.352 N 
HETATM   32  C   UNL     1       7.332  -1.426  -0.042  1.00  0.00     0.126 C 
HETATM   33  C   UNL     1       5.447  -2.457  -1.117  1.00  0.00     0.126 C 
HETATM   34  C   UNL     1       7.819  -2.563  -0.925  1.00  0.00     0.021 C 
HETATM   35  C   UNL     1       6.698  -2.703  -1.947  1.00  0.00     0.021 C 
ENDBRANCH  28  29
ENDBRANCH   2  28
TORSDOF 6
