REMARK  9 active torsions:
REMARK  status: ('A' for Active; 'I' for Inactive)
REMARK    1  A    between atoms: O_3  and  C_13 
REMARK    2  A    between atoms: O_3  and  C_21 
REMARK    3  A    between atoms: N_5  and  C_16 
REMARK    4  A    between atoms: N_6  and  C_20 
REMARK    5  A    between atoms: N_6  and  C_29 
REMARK    6  A    between atoms: N_7  and  C_14 
REMARK       I    between atoms: N_7  and  C_34 
REMARK    7  A    between atoms: C_16  and  C_19 
REMARK    8  A    between atoms: C_21  and  C_22 
REMARK    9  A    between atoms: C_34  and  C_38 
ROOT
HETATM    1  N   UNL     1       2.183   3.864  -0.736  1.00  0.00    -0.241 NA
HETATM    2  N   UNL     1       3.733   2.071  -1.177  1.00  0.00    -0.224 NA
HETATM    3  C   UNL     1       1.636   1.629  -0.059  1.00  0.00     0.041 A 
HETATM    4  C   UNL     1      -0.779   2.547   0.968  1.00  0.00     0.098 A 
HETATM    5  C   UNL     1      -0.469   1.195   1.060  1.00  0.00     0.069 A 
HETATM    6  C   UNL     1       1.333   2.997  -0.158  1.00  0.00     0.075 A 
HETATM    7  C   UNL     1       0.739   0.732   0.547  1.00  0.00     0.050 A 
HETATM    8  C   UNL     1       0.118   3.433   0.364  1.00  0.00     0.071 A 
HETATM    9  C   UNL     1       2.859   1.231  -0.592  1.00  0.00     0.142 A 
HETATM   10  C   UNL     1       3.337   3.354  -1.214  1.00  0.00     0.236 A 
ENDROOT
BRANCH   4  11
HETATM   11  O   UNL     1      -1.954   3.031   1.462  1.00  0.00    -0.343 OA
BRANCH  11  12
HETATM   12  C   UNL     1      -2.830   3.671   0.537  1.00  0.00     0.238 C 
BRANCH  12  13
HETATM   13  C   UNL     1      -3.776   2.651  -0.026  1.00  0.00     0.093 A 
HETATM   14  N   UNL     1      -5.083   2.596   0.373  1.00  0.00    -0.161 NA
HETATM   15  N   UNL     1      -5.672   1.607  -0.291  1.00  0.00     0.005 NA
HETATM   16  N   UNL     1      -4.744   1.056  -1.090  1.00  0.00    -0.279 N 
HETATM   17  C   UNL     1      -3.539   1.675  -0.961  1.00  0.00     0.139 A 
BRANCH  16  18
HETATM   18  C   UNL     1      -5.078  -0.051  -1.950  1.00  0.00     0.184 C 
BRANCH  18  19
HETATM   19  C   UNL     1      -4.604  -1.382  -1.422  1.00  0.00    -0.039 A 
HETATM   20  C   UNL     1      -5.508  -2.249  -0.807  1.00  0.00     0.009 A 
HETATM   21  C   UNL     1      -5.070  -3.480  -0.318  1.00  0.00     0.007 A 
HETATM   22  C   UNL     1      -3.729  -3.844  -0.445  1.00  0.00    -0.062 A 
HETATM   23  C   UNL     1      -2.826  -2.977  -1.060  1.00  0.00     0.007 A 
HETATM   24  C   UNL     1      -3.261  -5.160   0.077  1.00  0.00     0.048 C 
HETATM   25  C   UNL     1      -3.264  -1.746  -1.548  1.00  0.00     0.009 A 
ENDBRANCH  18  19
ENDBRANCH  16  18
ENDBRANCH  12  13
ENDBRANCH  11  12
ENDBRANCH   4  11
BRANCH   5  26
HETATM   26  N   UNL     1      -1.353   0.296   1.661  1.00  0.00    -0.321 N 
HETATM   27  C   UNL     1      -1.194  -1.085   1.834  1.00  0.00     0.245 C 
HETATM   28  O   UNL     1      -0.239  -1.769   1.486  1.00  0.00    -0.268 OA
HETATM   29  H   UNL     1      -2.212   0.717   2.009  1.00  0.00     0.169 HD
BRANCH  27  30
HETATM   30  C   UNL     1      -2.369  -1.690   2.525  1.00  0.00     0.064 C 
HETATM   31  C   UNL     1      -2.406  -3.001   2.782  1.00  0.00     0.017 C 
ENDBRANCH  27  30
ENDBRANCH   5  26
BRANCH   9  32
HETATM   32  N   UNL     1       3.233  -0.134  -0.529  1.00  0.00    -0.340 N 
HETATM   33  H   UNL     1       2.483  -0.761  -0.807  1.00  0.00     0.167 HD
BRANCH  32  34
HETATM   34  C   UNL     1       4.482  -0.771  -0.445  1.00  0.00     0.035 A 
HETATM   35  C   UNL     1       5.547  -0.137   0.195  1.00  0.00     0.056 A 
HETATM   36  C   UNL     1       6.787  -0.770   0.280  1.00  0.00     0.074 A 
HETATM   37 CL   UNL     1       8.097   0.018   1.071  1.00  0.00    -0.081 Cl
HETATM   38  C   UNL     1       6.962  -2.038  -0.276  1.00  0.00     0.138 A 
HETATM   39  F   UNL     1       8.148  -2.659  -0.203  1.00  0.00    -0.204 F 
HETATM   40  C   UNL     1       5.897  -2.672  -0.916  1.00  0.00     0.046 A 
HETATM   41  C   UNL     1       4.657  -2.038  -1.000  1.00  0.00     0.032 A 
ENDBRANCH  32  34
ENDBRANCH   9  32
TORSDOF 9
