REMARK  11 active torsions:
REMARK  status: ('A' for Active; 'I' for Inactive)
REMARK    1  A    between atoms: O_3  and  C_14 
REMARK    2  A    between atoms: O_3  and  C_16 
REMARK    3  A    between atoms: O_5  and  N_7 
REMARK    4  A    between atoms: N_6  and  C_22 
REMARK    5  A    between atoms: N_6  and  C_24 
REMARK       I    between atoms: N_7  and  C_17 
REMARK    6  A    between atoms: C_10  and  C_11 
REMARK    7  A    between atoms: C_10  and  C_12 
REMARK    8  A    between atoms: C_11  and  C_13 
REMARK    9  A    between atoms: C_12  and  C_14 
REMARK   10  A    between atoms: C_13  and  C_15 
REMARK   11  A    between atoms: C_15  and  C_17 
ROOT
HETATM    1  N   UNL     1      -3.153  -3.604   1.213  1.00  0.00    -0.241 NA
HETATM    2  N   UNL     1      -4.590  -1.806   0.499  1.00  0.00    -0.224 NA
HETATM    3  C   UNL     1       0.097  -1.832  -0.706  1.00  0.00     0.069 A 
HETATM    4  C   UNL     1      -2.250  -1.815  -0.106  1.00  0.00     0.041 A 
HETATM    5  C   UNL     1      -1.152  -1.220  -0.751  1.00  0.00     0.054 A 
HETATM    6  C   UNL     1      -2.109  -3.026   0.591  1.00  0.00     0.072 A 
HETATM    7  C   UNL     1       0.249  -3.032  -0.019  1.00  0.00     0.039 A 
HETATM    8  C   UNL     1      -3.525  -1.256  -0.112  1.00  0.00     0.142 A 
HETATM    9  C   UNL     1      -0.848  -3.616   0.621  1.00  0.00     0.035 A 
HETATM   10  C   UNL     1      -4.336  -2.962   1.132  1.00  0.00     0.236 A 
ENDROOT
BRANCH   3  11
HETATM   11  O   UNL     1       1.171  -1.256  -1.333  1.00  0.00    -0.351 OA
BRANCH  11  12
HETATM   12  C   UNL     1       2.450  -1.494  -0.760  1.00  0.00     0.175 C 
BRANCH  12  13
HETATM   13  C   UNL     1       3.380  -0.329  -1.073  1.00  0.00     0.027 C 
BRANCH  13  14
HETATM   14  C   UNL     1       4.771  -0.543  -0.479  1.00  0.00     0.002 C 
BRANCH  14  15
HETATM   15  C   UNL     1       5.686   0.649  -0.761  1.00  0.00     0.001 C 
BRANCH  15  16
HETATM   16  C   UNL     1       7.068   0.449  -0.138  1.00  0.00     0.009 C 
BRANCH  16  17
HETATM   17  C   UNL     1       7.991   1.624  -0.448  1.00  0.00     0.105 C 
BRANCH  17  18
HETATM   18  C   UNL     1       9.368   1.399   0.138  1.00  0.00     0.240 C 
HETATM   19  O   UNL     1      10.250   0.818  -0.491  1.00  0.00    -0.271 OA
HETATM   20  N   UNL     1       9.491   1.886   1.415  1.00  0.00    -0.237 N 
HETATM   21  H   UNL     1       8.818   2.461   1.909  1.00  0.00     0.197 HD
BRANCH  20  22
HETATM   22  O   UNL     1      10.736   1.690   2.028  1.00  0.00    -0.287 OA
HETATM   23  H   UNL     1      10.554   0.878   2.531  1.00  0.00     0.244 HD
ENDBRANCH  20  22
ENDBRANCH  17  18
ENDBRANCH  16  17
ENDBRANCH  15  16
ENDBRANCH  14  15
ENDBRANCH  13  14
ENDBRANCH  12  13
ENDBRANCH  11  12
ENDBRANCH   3  11
BRANCH   8  24
HETATM   24  N   UNL     1      -3.745  -0.034  -0.796  1.00  0.00    -0.340 N 
HETATM   25  H   UNL     1      -3.315  -0.015  -1.717  1.00  0.00     0.167 HD
BRANCH  24  26
HETATM   26  C   UNL     1      -4.643   1.023  -0.582  1.00  0.00     0.035 A 
HETATM   27  C   UNL     1      -5.077   1.319   0.710  1.00  0.00     0.056 A 
HETATM   28  C   UNL     1      -5.969   2.370   0.923  1.00  0.00     0.074 A 
HETATM   29 CL   UNL     1      -6.501   2.730   2.520  1.00  0.00    -0.081 Cl
HETATM   30  C   UNL     1      -6.428   3.125  -0.156  1.00  0.00     0.138 A 
HETATM   31  F   UNL     1      -7.285   4.138   0.032  1.00  0.00    -0.204 F 
HETATM   32  C   UNL     1      -5.994   2.829  -1.449  1.00  0.00     0.046 A 
HETATM   33  C   UNL     1      -5.101   1.778  -1.662  1.00  0.00     0.032 A 
ENDBRANCH  24  26
ENDBRANCH   8  24
TORSDOF 11
