REMARK  4 active torsions:
REMARK  status: ('A' for Active; 'I' for Inactive)
REMARK    1  A    between atoms: O_2  and  C_15 
REMARK    2  A    between atoms: O_2  and  C_19 
REMARK    3  A    between atoms: N_3  and  C_8 
REMARK    4  A    between atoms: N_3  and  C_10 
ROOT
HETATM    1 CL   UNL     1       2.472  -3.379  -0.918  1.00  0.00    -0.081 Cl
HETATM    2  C   UNL     1      -0.501  -0.984   0.260  1.00  0.00     0.035 A 
HETATM    3  C   UNL     1       0.219  -2.026  -0.324  1.00  0.00     0.056 A 
HETATM    4  C   UNL     1       0.166   0.005   0.983  1.00  0.00     0.032 A 
HETATM    5  C   UNL     1       2.273  -1.089   0.537  1.00  0.00     0.098 A 
HETATM    6  C   UNL     1       1.606  -2.078  -0.186  1.00  0.00     0.070 A 
HETATM    7  C   UNL     1       1.553  -0.048   1.122  1.00  0.00     0.041 A 
ENDROOT
BRANCH   2   8
HETATM    8  N   UNL     1      -1.905  -0.930   0.120  1.00  0.00    -0.339 N 
HETATM    9  H   UNL     1      -2.316  -1.832  -0.103  1.00  0.00     0.167 HD
BRANCH   8  10
HETATM   10  C   UNL     1      -2.820   0.136   0.078  1.00  0.00     0.158 A 
HETATM   11  N   UNL     1      -2.392   1.413   0.183  1.00  0.00    -0.222 NA
HETATM   12  C   UNL     1      -3.327   2.388   0.135  1.00  0.00     0.236 A 
HETATM   13  N   UNL     1      -4.663   2.268  -0.006  1.00  0.00    -0.240 NA
HETATM   14  C   UNL     1      -5.066   0.978  -0.109  1.00  0.00     0.090 A 
HETATM   15  C   UNL     1      -4.177  -0.092  -0.071  1.00  0.00     0.107 A 
HETATM   16  C   UNL     1      -6.369   0.446  -0.267  1.00  0.00     0.051 A 
HETATM   17  N   UNL     1      -4.914  -1.240  -0.201  1.00  0.00    -0.361 N 
HETATM   18  C   UNL     1      -6.245  -0.926  -0.320  1.00  0.00     0.091 A 
HETATM   19  H   UNL     1      -4.539  -2.179  -0.208  1.00  0.00     0.165 HD
ENDBRANCH   8  10
ENDBRANCH   2   8
BRANCH   5  20
HETATM   20  O   UNL     1       3.628  -1.116   0.690  1.00  0.00    -0.309 OA
BRANCH  20  21
HETATM   21  C   UNL     1       4.349  -0.039   0.205  1.00  0.00     0.076 A 
HETATM   22  C   UNL     1       4.065   0.478  -1.059  1.00  0.00     0.037 A 
HETATM   23  C   UNL     1       4.793   1.563  -1.548  1.00  0.00     0.003 A 
HETATM   24  C   UNL     1       5.805   2.130  -0.774  1.00  0.00     0.000 A 
HETATM   25  C   UNL     1       6.090   1.613   0.489  1.00  0.00     0.003 A 
HETATM   26  C   UNL     1       5.361   0.528   0.979  1.00  0.00     0.037 A 
ENDBRANCH  20  21
ENDBRANCH   5  20
TORSDOF 4
