REMARK  9 active torsions:
REMARK  status: ('A' for Active; 'I' for Inactive)
REMARK    1  A    between atoms: O_4  and  C_14 
REMARK    2  A    between atoms: O_4  and  C_21 
REMARK    3  A    between atoms: N_6  and  C_20 
REMARK    4  A    between atoms: N_7  and  C_19 
REMARK    5  A    between atoms: N_7  and  C_25 
REMARK    6  A    between atoms: N_8  and  C_15 
REMARK       I    between atoms: N_8  and  C_33 
REMARK    7  A    between atoms: C_20  and  C_24 
REMARK    8  A    between atoms: C_21  and  C_22 
REMARK    9  A    between atoms: C_33  and  C_38 
ROOT
HETATM    1  N   UNL     1       2.298   3.987  -0.573  1.00  0.00    -0.241 NA
HETATM    2  N   UNL     1       4.002   2.317  -0.235  1.00  0.00    -0.224 NA
HETATM    3  C   UNL     1       1.732   1.914   0.491  1.00  0.00     0.041 A 
HETATM    4  C   UNL     1      -0.900   2.775   0.739  1.00  0.00     0.098 A 
HETATM    5  C   UNL     1      -0.545   1.518   1.216  1.00  0.00     0.069 A 
HETATM    6  C   UNL     1       1.387   3.185   0.005  1.00  0.00     0.075 A 
HETATM    7  C   UNL     1       0.771   1.084   1.094  1.00  0.00     0.050 A 
HETATM    8  C   UNL     1       0.062   3.595   0.141  1.00  0.00     0.071 A 
HETATM    9  C   UNL     1       3.064   1.540   0.338  1.00  0.00     0.142 A 
HETATM   10  C   UNL     1       3.556   3.510  -0.662  1.00  0.00     0.236 A 
ENDROOT
BRANCH   4  11
HETATM   11  O   UNL     1      -2.181   3.230   0.845  1.00  0.00    -0.343 OA
BRANCH  11  12
HETATM   12  C   UNL     1      -2.856   3.550  -0.370  1.00  0.00     0.238 C 
BRANCH  12  13
HETATM   13  C   UNL     1      -3.591   2.336  -0.856  1.00  0.00     0.093 A 
HETATM   14  N   UNL     1      -4.950   2.233  -0.738  1.00  0.00    -0.161 NA
HETATM   15  N   UNL     1      -5.317   1.064  -1.252  1.00  0.00     0.005 NA
HETATM   16  N   UNL     1      -4.202   0.451  -1.684  1.00  0.00    -0.279 N 
HETATM   17  C   UNL     1      -3.094   1.207  -1.457  1.00  0.00     0.139 A 
BRANCH  16  18
HETATM   18  C   UNL     1      -4.271  -0.848  -2.302  1.00  0.00     0.187 C 
BRANCH  18  19
HETATM   19  C   UNL     1      -3.859  -1.971  -1.382  1.00  0.00    -0.000 A 
HETATM   20  C   UNL     1      -4.827  -2.772  -0.778  1.00  0.00     0.124 A 
HETATM   21  F   UNL     1      -6.130  -2.554  -1.007  1.00  0.00    -0.205 F 
HETATM   22  C   UNL     1      -4.443  -3.809   0.073  1.00  0.00     0.043 A 
HETATM   23  C   UNL     1      -3.091  -4.044   0.319  1.00  0.00     0.003 A 
HETATM   24  C   UNL     1      -2.122  -3.242  -0.285  1.00  0.00     0.001 A 
HETATM   25  C   UNL     1      -2.506  -2.206  -1.136  1.00  0.00     0.012 A 
ENDBRANCH  18  19
ENDBRANCH  16  18
ENDBRANCH  12  13
ENDBRANCH  11  12
ENDBRANCH   4  11
BRANCH   5  26
HETATM   26  N   UNL     1      -1.494   0.687   1.817  1.00  0.00    -0.321 N 
HETATM   27  C   UNL     1      -1.304  -0.596   2.346  1.00  0.00     0.245 C 
HETATM   28  O   UNL     1      -0.259  -1.235   2.381  1.00  0.00    -0.268 OA
HETATM   29  H   UNL     1      -2.431   1.081   1.865  1.00  0.00     0.169 HD
BRANCH  27  30
HETATM   30  C   UNL     1      -2.571  -1.154   2.901  1.00  0.00     0.064 C 
HETATM   31  C   UNL     1      -2.594  -2.371   3.452  1.00  0.00     0.017 C 
ENDBRANCH  27  30
ENDBRANCH   5  26
BRANCH   9  32
HETATM   32  N   UNL     1       3.488   0.270   0.804  1.00  0.00    -0.340 N 
HETATM   33  H   UNL     1       3.146   0.059   1.738  1.00  0.00     0.167 HD
BRANCH  32  34
HETATM   34  C   UNL     1       4.495  -0.609   0.375  1.00  0.00     0.035 A 
HETATM   35  C   UNL     1       4.864  -0.643  -0.970  1.00  0.00     0.056 A 
HETATM   36  C   UNL     1       5.864  -1.517  -1.397  1.00  0.00     0.074 A 
HETATM   37 CL   UNL     1       6.316  -1.555  -3.058  1.00  0.00    -0.081 Cl
HETATM   38  C   UNL     1       6.496  -2.356  -0.478  1.00  0.00     0.138 A 
HETATM   39  F   UNL     1       7.458  -3.201  -0.874  1.00  0.00    -0.204 F 
HETATM   40  C   UNL     1       6.126  -2.322   0.866  1.00  0.00     0.046 A 
HETATM   41  C   UNL     1       5.126  -1.448   1.293  1.00  0.00     0.032 A 
ENDBRANCH  32  34
ENDBRANCH   9  32
TORSDOF 9
