REMARK  11 active torsions:
REMARK  status: ('A' for Active; 'I' for Inactive)
REMARK    1  A    between atoms: S_2  and  C_12 
REMARK    2  A    between atoms: O_6  and  C_30 
REMARK    3  A    between atoms: O_6  and  C_33 
REMARK    4  A    between atoms: N_7  and  C_11 
REMARK    5  A    between atoms: N_7  and  C_13 
REMARK    6  A    between atoms: N_8  and  C_23 
REMARK    7  A    between atoms: N_8  and  C_26 
REMARK    8  A    between atoms: C_11  and  C_12 
REMARK    9  A    between atoms: C_13  and  C_14 
REMARK   10  A    between atoms: C_15  and  C_16 
REMARK   11  A    between atoms: C_33  and  C_34 
ROOT
HETATM    1  N   UNL     1      -2.013   5.711  -0.618  1.00  0.00    -0.241 NA
HETATM    2  N   UNL     1      -0.073   4.601   0.283  1.00  0.00    -0.224 NA
HETATM    3  C   UNL     1      -4.233   2.198  -0.296  1.00  0.00    -0.001 A 
HETATM    4  C   UNL     1      -2.149   3.397  -0.004  1.00  0.00     0.040 A 
HETATM    5  C   UNL     1      -2.900   2.214   0.103  1.00  0.00     0.032 A 
HETATM    6  C   UNL     1      -2.723   4.574  -0.511  1.00  0.00     0.072 A 
HETATM    7  C   UNL     1      -4.812   3.357  -0.799  1.00  0.00     0.016 A 
HETATM    8  C   UNL     1      -0.812   3.480   0.377  1.00  0.00     0.142 A 
HETATM    9  C   UNL     1      -4.058   4.530  -0.903  1.00  0.00     0.033 A 
HETATM   10  C   UNL     1      -0.727   5.663  -0.215  1.00  0.00     0.236 A 
ENDROOT
BRANCH   8  11
HETATM   11  N   UNL     1      -0.164   2.332   0.897  1.00  0.00    -0.340 N 
HETATM   12  H   UNL     1      -0.724   1.844   1.590  1.00  0.00     0.167 HD
BRANCH  11  13
HETATM   13  C   UNL     1       1.172   1.902   0.863  1.00  0.00     0.035 A 
HETATM   14  C   UNL     1       1.995   2.245  -0.214  1.00  0.00     0.051 A 
HETATM   15  C   UNL     1       3.322   1.817  -0.247  1.00  0.00     0.046 A 
HETATM   16 BR   UNL     1       4.404   2.304  -1.725  1.00  0.00    -0.048 Br
HETATM   17  C   UNL     1       3.832   1.044   0.797  1.00  0.00     0.086 A 
HETATM   18  C   UNL     1       3.015   0.699   1.873  1.00  0.00     0.040 A 
HETATM   19  C   UNL     1       1.688   1.127   1.907  1.00  0.00     0.032 A 
BRANCH  17  20
HETATM   20  O   UNL     1       5.125   0.610   0.795  1.00  0.00    -0.345 OA
BRANCH  20  21
HETATM   21  C   UNL     1       5.334  -0.800   0.825  1.00  0.00     0.214 C 
BRANCH  21  22
HETATM   22  C   UNL     1       6.630  -1.117   0.139  1.00  0.00    -0.034 A 
HETATM   23  C   UNL     1       6.641  -1.371  -1.229  1.00  0.00     0.009 A 
HETATM   24  C   UNL     1       7.846  -1.666  -1.867  1.00  0.00     0.001 A 
HETATM   25  C   UNL     1       9.032  -1.705  -1.134  1.00  0.00     0.000 A 
HETATM   26  C   UNL     1       9.013  -1.449   0.238  1.00  0.00     0.001 A 
HETATM   27  C   UNL     1       7.808  -1.155   0.876  1.00  0.00     0.009 A 
ENDBRANCH  21  22
ENDBRANCH  20  21
ENDBRANCH  17  20
ENDBRANCH  11  13
ENDBRANCH   8  11
BRANCH   3  28
HETATM   28  C   UNL     1      -5.010   0.988  -0.187  1.00  0.00     0.086 A 
HETATM   29  O   UNL     1      -4.345  -0.081   0.317  1.00  0.00    -0.312 OA
HETATM   30  C   UNL     1      -5.233  -1.109   0.341  1.00  0.00     0.081 A 
HETATM   31  C   UNL     1      -6.455  -0.703  -0.143  1.00  0.00     0.037 A 
HETATM   32  C   UNL     1      -6.308   0.662  -0.486  1.00  0.00     0.040 A 
BRANCH  30  33
HETATM   33  C   UNL     1      -4.731  -2.391   0.855  1.00  0.00     0.334 C 
BRANCH  33  34
HETATM   34  N   UNL     1      -4.161  -3.236  -0.208  1.00  0.00     0.090 N 
HETATM   35  H   UNL     1      -3.383  -2.744  -0.647  1.00  0.00     0.316 HD
BRANCH  34  36
HETATM   36  C   UNL     1      -3.689  -4.492   0.345  1.00  0.00     0.284 C 
BRANCH  36  37
HETATM   37  C   UNL     1      -3.057  -5.358  -0.733  1.00  0.00     0.169 C 
BRANCH  37  38
HETATM   38  S   UNL     1      -2.457  -6.877  -0.063  1.00  0.00     0.142 S 
HETATM   39  O   UNL     1      -1.329  -6.577   0.803  1.00  0.00    -0.228 OA
HETATM   40  O   UNL     1      -3.592  -7.634   0.436  1.00  0.00    -0.228 OA
HETATM   41  C   UNL     1      -1.826  -7.733  -1.488  1.00  0.00     0.161 C 
ENDBRANCH  37  38
ENDBRANCH  36  37
ENDBRANCH  34  36
ENDBRANCH  33  34
ENDBRANCH  30  33
ENDBRANCH   3  28
TORSDOF 11
