REMARK  11 active torsions:
REMARK  status: ('A' for Active; 'I' for Inactive)
REMARK    1  A    between atoms: O_2  and  C_11 
REMARK    2  A    between atoms: O_2  and  C_13 
REMARK    3  A    between atoms: O_4  and  C_22 
REMARK    4  A    between atoms: O_5  and  C_28 
REMARK    5  A    between atoms: O_5  and  C_31 
REMARK       I    between atoms: N_6  and  C_14 
REMARK    6  A    between atoms: N_6  and  C_15 
REMARK    7  A    between atoms: N_7  and  C_17 
REMARK    8  A    between atoms: N_7  and  C_24 
REMARK    9  A    between atoms: C_11  and  C_14 
REMARK   10  A    between atoms: C_15  and  C_22 
REMARK   11  A    between atoms: C_31  and  C_32 
ROOT
HETATM    1  N   UNL     1       2.506  -4.595  -0.128  1.00  0.00    -0.241 NA
HETATM    2  N   UNL     1       0.500  -3.329   0.298  1.00  0.00    -0.223 NA
HETATM    3  C   UNL     1       2.644  -2.220   0.178  1.00  0.00     0.072 A 
HETATM    4  C   UNL     1       3.419  -1.049   0.239  1.00  0.00     0.086 A 
HETATM    5  C   UNL     1       3.238  -3.469  -0.067  1.00  0.00     0.075 A 
HETATM    6  C   UNL     1       1.263  -2.221   0.352  1.00  0.00     0.144 A 
HETATM    7  C   UNL     1       4.797  -1.117   0.055  1.00  0.00     0.038 A 
HETATM    8  C   UNL     1       4.619  -3.507  -0.247  1.00  0.00     0.033 A 
HETATM    9  C   UNL     1       5.397  -2.347  -0.188  1.00  0.00     0.005 A 
HETATM   10  C   UNL     1       1.177  -4.464   0.058  1.00  0.00     0.236 A 
ENDROOT
BRANCH   6  11
HETATM   11  N   UNL     1       0.564  -1.018   0.604  1.00  0.00    -0.340 N 
HETATM   12  H   UNL     1       1.040  -0.417   1.271  1.00  0.00     0.167 HD
BRANCH  11  13
HETATM   13  C   UNL     1      -0.743  -0.597   0.301  1.00  0.00     0.035 A 
HETATM   14  C   UNL     1      -1.397   0.308   1.137  1.00  0.00     0.056 A 
HETATM   15  C   UNL     1      -2.693   0.725   0.836  1.00  0.00     0.069 A 
HETATM   16 CL   UNL     1      -3.478   1.844   1.888  1.00  0.00    -0.081 Cl
HETATM   17  C   UNL     1      -3.336   0.237  -0.302  1.00  0.00     0.091 A 
HETATM   18  C   UNL     1      -2.682  -0.667  -1.138  1.00  0.00     0.041 A 
HETATM   19  C   UNL     1      -1.386  -1.084  -0.837  1.00  0.00     0.032 A 
BRANCH  17  20
HETATM   20  O   UNL     1      -4.602   0.628  -0.621  1.00  0.00    -0.344 OA
BRANCH  20  21
HETATM   21  C   UNL     1      -5.594  -0.394  -0.700  1.00  0.00     0.235 C 
BRANCH  21  22
HETATM   22  C   UNL     1      -6.931   0.194  -0.358  1.00  0.00     0.058 A 
HETATM   23  N   UNL     1      -7.290   0.164   0.945  1.00  0.00    -0.263 NA
HETATM   24  C   UNL     1      -8.496   0.695   1.248  1.00  0.00     0.117 A 
HETATM   25  C   UNL     1      -9.355   1.251   0.314  1.00  0.00     0.019 A 
HETATM   26  C   UNL     1      -8.951   1.263  -1.017  1.00  0.00     0.003 A 
HETATM   27  C   UNL     1      -7.717   0.726  -1.367  1.00  0.00     0.029 A 
ENDBRANCH  21  22
ENDBRANCH  20  21
ENDBRANCH  17  20
ENDBRANCH  11  13
ENDBRANCH   6  11
BRANCH   4  28
HETATM   28  O   UNL     1       2.896   0.194   0.475  1.00  0.00    -0.336 OA
BRANCH  28  29
HETATM   29  C   UNL     1       3.097   1.176  -0.537  1.00  0.00     0.216 C 
HETATM   30  C   UNL     1       1.736   1.647  -1.031  1.00  0.00     0.050 C 
BRANCH  29  31
HETATM   31  C   UNL     1       3.906   2.326   0.059  1.00  0.00     0.248 C 
HETATM   32  O   UNL     1       3.740   2.632   1.244  1.00  0.00    -0.270 OA
HETATM   33  N   UNL     1       4.811   2.983  -0.779  1.00  0.00    -0.352 N 
HETATM   34  C   UNL     1       4.999   2.613  -2.177  1.00  0.00     0.152 C 
BRANCH  33  35
HETATM   35  C   UNL     1       5.642   4.095  -0.322  1.00  0.00     0.151 C 
BRANCH  35  36
HETATM   36  C   UNL     1       6.970   3.609   0.230  1.00  0.00     0.183 C 
BRANCH  36  37
HETATM   37  O   UNL     1       6.735   2.768   1.353  1.00  0.00    -0.399 OA
HETATM   38  H   UNL     1       7.604   2.478   1.678  1.00  0.00     0.209 HD
ENDBRANCH  36  37
ENDBRANCH  35  36
ENDBRANCH  33  35
ENDBRANCH  29  31
ENDBRANCH  28  29
ENDBRANCH   4  28
TORSDOF 11
