REMARK  12 active torsions:
REMARK  status: ('A' for Active; 'I' for Inactive)
REMARK    1  A    between atoms: S_2  and  C_12 
REMARK    2  A    between atoms: S_2  and  C_16 
REMARK    3  A    between atoms: O_7  and  C_36 
REMARK    4  A    between atoms: O_7  and  C_39 
REMARK    5  A    between atoms: N_8  and  C_13 
REMARK    6  A    between atoms: N_8  and  C_14 
REMARK    7  A    between atoms: N_9  and  C_27 
REMARK    8  A    between atoms: N_9  and  C_31 
REMARK    9  A    between atoms: C_12  and  C_13 
REMARK   10  A    between atoms: C_14  and  C_15 
REMARK   11  A    between atoms: C_17  and  C_18 
REMARK   12  A    between atoms: C_39  and  C_40 
ROOT
HETATM    1  N   UNL     1      -5.342   4.470  -0.635  1.00  0.00    -0.241 NA
HETATM    2  N   UNL     1      -3.109   4.394   0.267  1.00  0.00    -0.224 NA
HETATM    3  C   UNL     1      -5.608   0.314  -0.458  1.00  0.00    -0.001 A 
HETATM    4  C   UNL     1      -4.353   2.354  -0.093  1.00  0.00     0.040 A 
HETATM    5  C   UNL     1      -4.447   0.952  -0.035  1.00  0.00     0.032 A 
HETATM    6  C   UNL     1      -5.421   3.129  -0.575  1.00  0.00     0.072 A 
HETATM    7  C   UNL     1      -6.671   1.071  -0.937  1.00  0.00     0.016 A 
HETATM    8  C   UNL     1      -3.221   3.054   0.314  1.00  0.00     0.142 A 
HETATM    9  C   UNL     1      -6.571   2.464  -0.992  1.00  0.00     0.033 A 
HETATM   10  C   UNL     1      -4.191   5.030  -0.211  1.00  0.00     0.236 A 
ENDROOT
BRANCH   3  11
HETATM   11  C   UNL     1      -5.711  -1.123  -0.398  1.00  0.00     0.086 A 
HETATM   12  O   UNL     1      -4.615  -1.760   0.086  1.00  0.00    -0.312 OA
HETATM   13  C   UNL     1      -4.902  -3.088   0.063  1.00  0.00     0.081 A 
HETATM   14  C   UNL     1      -6.169  -3.300  -0.430  1.00  0.00     0.037 A 
HETATM   15  C   UNL     1      -6.694  -2.020  -0.729  1.00  0.00     0.040 A 
BRANCH  13  16
HETATM   16  C   UNL     1      -3.848  -3.990   0.548  1.00  0.00     0.334 C 
BRANCH  16  17
HETATM   17  N   UNL     1      -2.513  -3.654   0.027  1.00  0.00     0.090 N 
HETATM   18  H   UNL     1      -2.269  -2.706   0.314  1.00  0.00     0.316 HD
BRANCH  17  19
HETATM   19  C   UNL     1      -1.524  -4.586   0.535  1.00  0.00     0.285 C 
BRANCH  19  20
HETATM   20  C   UNL     1      -0.133  -4.226   0.040  1.00  0.00     0.175 C 
BRANCH  20  21
HETATM   21  S   UNL     1       1.081  -5.340   0.675  1.00  0.00     0.177 S 
HETATM   22  O   UNL     1       0.844  -6.658   0.113  1.00  0.00    -0.223 OA
HETATM   23  O   UNL     1       1.140  -5.158   2.115  1.00  0.00    -0.223 OA
BRANCH  21  24
HETATM   24  C   UNL     1       2.601  -4.753  -0.010  1.00  0.00     0.059 A 
HETATM   25  C   UNL     1       3.026  -5.245  -1.232  1.00  0.00     0.023 A 
HETATM   26  C   UNL     1       4.226  -4.782  -1.773  1.00  0.00     0.002 A 
HETATM   27  C   UNL     1       4.981  -3.833  -1.083  1.00  0.00     0.000 A 
HETATM   28  C   UNL     1       4.537  -3.348   0.147  1.00  0.00     0.002 A 
HETATM   29  C   UNL     1       3.338  -3.812   0.688  1.00  0.00     0.023 A 
ENDBRANCH  21  24
ENDBRANCH  20  21
ENDBRANCH  19  20
ENDBRANCH  17  19
ENDBRANCH  16  17
ENDBRANCH  13  16
ENDBRANCH   3  11
BRANCH   8  30
HETATM   30  N   UNL     1      -2.103   2.339   0.812  1.00  0.00    -0.340 N 
HETATM   31  H   UNL     1      -2.347   1.531   1.375  1.00  0.00     0.167 HD
BRANCH  30  32
HETATM   32  C   UNL     1      -0.724   2.602   0.789  1.00  0.00     0.035 A 
HETATM   33  C   UNL     1       0.174   1.703   1.371  1.00  0.00     0.056 A 
HETATM   34  C   UNL     1       1.544   1.965   1.348  1.00  0.00     0.069 A 
HETATM   35 CL   UNL     1       2.625   0.834   2.075  1.00  0.00    -0.081 Cl
HETATM   36  C   UNL     1       2.022   3.127   0.743  1.00  0.00     0.091 A 
HETATM   37  C   UNL     1       1.130   4.028   0.161  1.00  0.00     0.041 A 
HETATM   38  C   UNL     1      -0.240   3.766   0.184  1.00  0.00     0.032 A 
BRANCH  36  39
HETATM   39  O   UNL     1       3.355   3.409   0.705  1.00  0.00    -0.345 OA
BRANCH  39  40
HETATM   40  C   UNL     1       3.951   3.547  -0.583  1.00  0.00     0.214 C 
BRANCH  40  41
HETATM   41  C   UNL     1       5.380   3.095  -0.513  1.00  0.00    -0.031 A 
HETATM   42  C   UNL     1       5.693   1.763  -0.761  1.00  0.00     0.051 A 
HETATM   43  C   UNL     1       7.021   1.343  -0.697  1.00  0.00     0.117 A 
HETATM   44  F   UNL     1       7.331   0.062  -0.937  1.00  0.00    -0.206 F 
HETATM   45  C   UNL     1       8.028   2.257  -0.386  1.00  0.00     0.042 A 
HETATM   46  C   UNL     1       7.706   3.591  -0.138  1.00  0.00     0.004 A 
HETATM   47  C   UNL     1       6.378   4.012  -0.201  1.00  0.00     0.009 A 
ENDBRANCH  40  41
ENDBRANCH  39  40
ENDBRANCH  36  39
ENDBRANCH  30  32
ENDBRANCH   8  30
TORSDOF 12
