REMARK  8 active torsions:
REMARK  status: ('A' for Active; 'I' for Inactive)
REMARK    1  A    between atoms: O_2  and  C_15 
REMARK    2  A    between atoms: O_2  and  C_16 
REMARK    3  A    between atoms: N_5  and  C_20 
REMARK    4  A    between atoms: N_5  and  C_23 
REMARK    5  A    between atoms: N_6  and  C_26 
REMARK    6  A    between atoms: C_10  and  C_15 
REMARK    7  A    between atoms: C_16  and  C_17 
REMARK    8  A    between atoms: C_26  and  C_30 
ROOT
HETATM    1  N   UNL     1       5.578   1.112   0.377  1.00  0.00    -0.240 N 
HETATM    2  N   UNL     1       5.613   2.388   0.831  1.00  0.00    -0.161 NA
HETATM    3  N   UNL     1       3.345   2.578   0.040  1.00  0.00    -0.220 NA
HETATM    4  C   UNL     1       4.804  -0.753  -0.559  1.00  0.00    -0.001 A 
HETATM    5  C   UNL     1       4.486   0.547  -0.230  1.00  0.00     0.112 A 
HETATM    6  C   UNL     1       6.138  -0.977  -0.133  1.00  0.00     0.031 A 
HETATM    7  C   UNL     1       3.297   1.346  -0.403  1.00  0.00     0.159 A 
HETATM    8  C   UNL     1       6.591   0.192   0.442  1.00  0.00     0.119 A 
HETATM    9  C   UNL     1       4.503   3.042   0.637  1.00  0.00     0.258 A 
ENDROOT
BRANCH   7  10
HETATM   10  N   UNL     1       2.150   0.876  -0.998  1.00  0.00    -0.339 N 
HETATM   11  H   UNL     1       2.215   0.136  -1.686  1.00  0.00     0.167 HD
BRANCH  10  12
HETATM   12  C   UNL     1       0.845   1.279  -0.724  1.00  0.00     0.034 A 
HETATM   13  C   UNL     1       0.518   1.724   0.563  1.00  0.00     0.044 A 
HETATM   14  C   UNL     1      -0.804   2.127   0.818  1.00  0.00     0.014 A 
HETATM   15  C   UNL     1      -1.742   2.072  -0.207  1.00  0.00     0.065 A 
HETATM   16  C   UNL     1      -1.525   2.619   1.926  1.00  0.00     0.152 A 
HETATM   17  N   UNL     1      -2.910   2.521   0.349  1.00  0.00    -0.265 N 
HETATM   18  C   UNL     1      -1.436   1.632  -1.497  1.00  0.00     0.034 A 
HETATM   19  N   UNL     1      -2.807   2.861   1.645  1.00  0.00    -0.183 NA
HETATM   20  C   UNL     1      -0.117   1.235  -1.735  1.00  0.00     0.032 A 
BRANCH  17  21
HETATM   21  C   UNL     1      -4.186   2.652  -0.314  1.00  0.00     0.190 C 
BRANCH  21  22
HETATM   22  C   UNL     1      -4.914   1.340  -0.476  1.00  0.00    -0.035 A 
HETATM   23  C   UNL     1      -5.205   0.562   0.644  1.00  0.00     0.051 A 
HETATM   24  C   UNL     1      -5.878  -0.651   0.494  1.00  0.00     0.117 A 
HETATM   25  F   UNL     1      -6.157  -1.400   1.569  1.00  0.00    -0.206 F 
HETATM   26  C   UNL     1      -6.258  -1.086  -0.776  1.00  0.00     0.042 A 
HETATM   27  C   UNL     1      -5.965  -0.308  -1.896  1.00  0.00     0.004 A 
HETATM   28  C   UNL     1      -5.294   0.906  -1.746  1.00  0.00     0.009 A 
ENDBRANCH  21  22
ENDBRANCH  17  21
ENDBRANCH  10  12
ENDBRANCH   7  10
BRANCH   4  29
HETATM   29  C   UNL     1       3.936  -1.771  -1.238  1.00  0.00     0.208 C 
BRANCH  29  30
HETATM   30  O   UNL     1       2.974  -2.255  -0.308  1.00  0.00    -0.386 OA
BRANCH  30  31
HETATM   31  C   UNL     1       2.121  -3.224  -0.892  1.00  0.00     0.172 C 
BRANCH  31  32
HETATM   32  C   UNL     1       1.123  -3.691   0.163  1.00  0.00     0.013 C 
HETATM   33  C   UNL     1       0.284  -2.518   0.687  1.00  0.00     0.036 C 
HETATM   34  C   UNL     1      -0.790  -2.999   1.661  1.00  0.00     0.270 C 
HETATM   35  N   UNL     1      -1.653  -4.019   1.061  1.00  0.00     0.083 N 
HETATM   36  C   UNL     1      -0.869  -5.176   0.623  1.00  0.00     0.270 C 
HETATM   37  H   UNL     1      -2.344  -4.321   1.747  1.00  0.00     0.315 HD
HETATM   38  C   UNL     1       0.203  -4.784  -0.394  1.00  0.00     0.036 C 
ENDBRANCH  31  32
ENDBRANCH  30  31
ENDBRANCH  29  30
ENDBRANCH   4  29
TORSDOF 8
