REMARK  4 active torsions:
REMARK  status: ('A' for Active; 'I' for Inactive)
REMARK    1  A    between atoms: N_4  and  C_9 
REMARK    2  A    between atoms: N_4  and  C_15 
REMARK    3  A    between atoms: N_7  and  C_12 
REMARK       I    between atoms: N_7  and  C_22 
REMARK    4  A    between atoms: C_22  and  C_23 
ROOT
HETATM    1  N   UNL     1       1.424   2.171  -0.516  1.00  0.00    -0.224 NA
HETATM    2  N   UNL     1      -0.558   3.454  -0.030  1.00  0.00    -0.241 NA
HETATM    3  C   UNL     1      -0.715   1.072  -0.266  1.00  0.00     0.041 A 
HETATM    4  C   UNL     1       0.656   1.065  -0.504  1.00  0.00     0.142 A 
HETATM    5  C   UNL     1      -1.294   2.329  -0.026  1.00  0.00     0.072 A 
HETATM    6  C   UNL     1      -1.495  -0.097  -0.259  1.00  0.00     0.047 A 
HETATM    7  C   UNL     1      -2.862  -0.020  -0.013  1.00  0.00     0.036 A 
HETATM    8  C   UNL     1      -2.665   2.377   0.218  1.00  0.00     0.035 A 
HETATM    9  C   UNL     1      -3.447   1.218   0.226  1.00  0.00     0.032 A 
HETATM   10  C   UNL     1       0.761   3.313  -0.275  1.00  0.00     0.236 A 
ENDROOT
BRANCH   4  11
HETATM   11  N   UNL     1       1.312  -0.167  -0.755  1.00  0.00    -0.340 N 
HETATM   12  H   UNL     1       0.808  -0.755  -1.413  1.00  0.00     0.167 HD
BRANCH  11  13
HETATM   13  C   UNL     1       2.619  -0.613  -0.501  1.00  0.00     0.035 A 
HETATM   14  C   UNL     1       3.336  -0.111   0.589  1.00  0.00     0.051 A 
HETATM   15  C   UNL     1       4.635  -0.554   0.839  1.00  0.00     0.051 A 
HETATM   16 BR   UNL     1       5.591   0.135   2.318  1.00  0.00    -0.048 Br
HETATM   17  C   UNL     1       5.222  -1.501   0.001  1.00  0.00     0.133 A 
HETATM   18  F   UNL     1       6.470  -1.937   0.226  1.00  0.00    -0.205 F 
HETATM   19  C   UNL     1       4.511  -2.006  -1.088  1.00  0.00     0.046 A 
HETATM   20  C   UNL     1       3.212  -1.562  -1.338  1.00  0.00     0.032 A 
ENDBRANCH  11  13
ENDBRANCH   4  11
BRANCH   7  21
HETATM   21  N   UNL     1      -3.642  -1.177  -0.006  1.00  0.00    -0.324 N 
HETATM   22  C   UNL     1      -5.020  -1.288   0.222  1.00  0.00     0.244 C 
HETATM   23  O   UNL     1      -5.806  -0.379   0.459  1.00  0.00    -0.268 OA
HETATM   24  H   UNL     1      -3.130  -2.038  -0.190  1.00  0.00     0.169 HD
BRANCH  22  25
HETATM   25  C   UNL     1      -5.478  -2.706   0.144  1.00  0.00     0.064 C 
HETATM   26  C   UNL     1      -6.765  -3.016   0.334  1.00  0.00     0.017 C 
ENDBRANCH  22  25
ENDBRANCH   7  21
TORSDOF 4
