REMARK  5 active torsions:
REMARK  status: ('A' for Active; 'I' for Inactive)
REMARK    1  A    between atoms: N_1  and  C_12 
REMARK    2  A    between atoms: N_2  and  C_7 
REMARK    3  A    between atoms: N_4  and  C_17 
REMARK    4  A    between atoms: N_4  and  C_18 
REMARK    5  A    between atoms: C_12  and  C_13 
ROOT
HETATM    1  N   UNL     1      -0.116   3.237   0.229  1.00  0.00    -0.240 N 
HETATM    2  N   UNL     1      -1.083   3.821   0.977  1.00  0.00    -0.161 NA
HETATM    3  N   UNL     1      -2.125   1.650   1.063  1.00  0.00    -0.220 NA
HETATM    4  C   UNL     1       1.012   1.665  -0.871  1.00  0.00     0.004 A 
HETATM    5  C   UNL     1      -0.113   1.909  -0.113  1.00  0.00     0.112 A 
HETATM    6  C   UNL     1       1.711   2.893  -0.988  1.00  0.00     0.030 A 
HETATM    7  C   UNL     1       0.992   3.847  -0.299  1.00  0.00     0.119 A 
HETATM    8  C   UNL     1      -1.197   1.071   0.341  1.00  0.00     0.159 A 
HETATM    9  C   UNL     1      -2.024   2.999   1.347  1.00  0.00     0.258 A 
ENDROOT
BRANCH   4  10
HETATM   10  C   UNL     1       1.450   0.370  -1.474  1.00  0.00     0.313 C 
BRANCH  10  11
HETATM   11  N   UNL     1       2.301  -0.342  -0.521  1.00  0.00     0.092 N 
HETATM   12  C   UNL     1       2.292  -1.785  -0.802  1.00  0.00     0.275 C 
HETATM   13  C   UNL     1       3.137  -2.551   0.219  1.00  0.00     0.065 C 
HETATM   14  C   UNL     1       4.571  -2.016   0.257  1.00  0.00     0.221 C 
HETATM   15  C   UNL     1       4.558  -0.502   0.482  1.00  0.00     0.065 C 
HETATM   16  C   UNL     1       3.667   0.197  -0.548  1.00  0.00     0.275 C 
BRANCH  14  17
HETATM   17  N   UNL     1       5.348  -2.676   1.304  1.00  0.00     0.083 N 
HETATM   18  H   UNL     1       5.386  -3.678   1.123  1.00  0.00     0.313 HD
HETATM   19  H   UNL     1       6.310  -2.341   1.281  1.00  0.00     0.313 HD
ENDBRANCH  14  17
ENDBRANCH  10  11
ENDBRANCH   4  10
BRANCH   8  20
HETATM   20  N   UNL     1      -1.289  -0.270   0.054  1.00  0.00    -0.339 N 
HETATM   21  H   UNL     1      -0.433  -0.792  -0.090  1.00  0.00     0.167 HD
BRANCH  20  22
HETATM   22  C   UNL     1      -2.458  -1.013  -0.086  1.00  0.00     0.039 A 
HETATM   23  C   UNL     1      -2.484  -2.370   0.236  1.00  0.00    -0.035 A 
HETATM   24  C   UNL     1      -3.665  -3.098   0.089  1.00  0.00     0.009 A 
HETATM   25  C   UNL     1      -1.263  -3.068   0.740  1.00  0.00     0.050 C 
HETATM   26  C   UNL     1      -4.819  -2.470  -0.379  1.00  0.00     0.001 A 
HETATM   27  C   UNL     1      -4.792  -1.113  -0.701  1.00  0.00     0.002 A 
HETATM   28  C   UNL     1      -3.612  -0.384  -0.555  1.00  0.00     0.030 A 
ENDBRANCH  20  22
ENDBRANCH   8  20
TORSDOF 5
