REMARK  12 active torsions:
REMARK  status: ('A' for Active; 'I' for Inactive)
REMARK    1  A    between atoms: O_3  and  C_15 
REMARK    2  A    between atoms: O_3  and  C_17 
REMARK    3  A    between atoms: O_4  and  C_20 
REMARK    4  A    between atoms: O_6  and  N_9 
REMARK    5  A    between atoms: N_7  and  C_24 
REMARK    6  A    between atoms: N_7  and  C_25 
REMARK       I    between atoms: N_9  and  C_19 
REMARK    7  A    between atoms: C_11  and  C_12 
REMARK    8  A    between atoms: C_11  and  C_13 
REMARK    9  A    between atoms: C_12  and  C_14 
REMARK   10  A    between atoms: C_13  and  C_15 
REMARK   11  A    between atoms: C_14  and  C_16 
REMARK   12  A    between atoms: C_16  and  C_19 
ROOT
HETATM    1  N   UNL     1       0.308  -3.467   1.337  1.00  0.00    -0.241 NA
HETATM    2  N   UNL     1       2.398  -2.482   0.656  1.00  0.00    -0.224 NA
HETATM    3  C   UNL     1      -2.462  -1.823  -0.406  1.00  0.00     0.104 A 
HETATM    4  C   UNL     1       0.311  -1.682  -0.264  1.00  0.00     0.042 A 
HETATM    5  C   UNL     1      -1.785  -0.887  -1.180  1.00  0.00     0.102 A 
HETATM    6  C   UNL     1      -0.360  -2.632   0.523  1.00  0.00     0.075 A 
HETATM    7  C   UNL     1      -1.750  -2.683   0.435  1.00  0.00     0.072 A 
HETATM    8  C   UNL     1      -0.398  -0.813  -1.112  1.00  0.00     0.057 A 
HETATM    9  C   UNL     1       1.699  -1.661  -0.148  1.00  0.00     0.142 A 
HETATM   10  C   UNL     1       1.650  -3.348   1.360  1.00  0.00     0.236 A 
ENDROOT
BRANCH   3  11
HETATM   11  O   UNL     1      -3.829  -1.913  -0.458  1.00  0.00    -0.348 OA
BRANCH  11  12
HETATM   12  C   UNL     1      -4.532  -1.694   0.758  1.00  0.00     0.176 C 
BRANCH  12  13
HETATM   13  C   UNL     1      -5.884  -1.059   0.465  1.00  0.00     0.027 C 
BRANCH  13  14
HETATM   14  C   UNL     1      -5.734   0.282  -0.250  1.00  0.00     0.002 C 
BRANCH  14  15
HETATM   15  C   UNL     1      -4.899   1.262   0.575  1.00  0.00     0.001 C 
BRANCH  15  16
HETATM   16  C   UNL     1      -4.720   2.593  -0.156  1.00  0.00     0.009 C 
BRANCH  16  17
HETATM   17  C   UNL     1      -3.915   3.583   0.683  1.00  0.00     0.105 C 
BRANCH  17  18
HETATM   18  C   UNL     1      -2.524   3.053   0.957  1.00  0.00     0.240 C 
HETATM   19  O   UNL     1      -2.273   2.383   1.956  1.00  0.00    -0.271 OA
HETATM   20  N   UNL     1      -1.615   3.421  -0.003  1.00  0.00    -0.237 N 
HETATM   21  H   UNL     1      -1.779   4.046  -0.784  1.00  0.00     0.197 HD
BRANCH  20  22
HETATM   22  O   UNL     1      -0.300   2.983   0.198  1.00  0.00    -0.287 OA
HETATM   23  H   UNL     1      -0.379   2.050  -0.060  1.00  0.00     0.244 HD
ENDBRANCH  20  22
ENDBRANCH  17  18
ENDBRANCH  16  17
ENDBRANCH  15  16
ENDBRANCH  14  15
ENDBRANCH  13  14
ENDBRANCH  12  13
ENDBRANCH  11  12
ENDBRANCH   3  11
BRANCH   5  24
HETATM   24  O   UNL     1      -2.466  -0.042  -2.002  1.00  0.00    -0.353 OA
HETATM   25  C   UNL     1      -1.693   0.888  -2.761  1.00  0.00     0.210 C 
ENDBRANCH   5  24
BRANCH   9  26
HETATM   26  N   UNL     1       2.445  -0.729  -0.911  1.00  0.00    -0.340 N 
HETATM   27  H   UNL     1       2.149  -0.689  -1.883  1.00  0.00     0.167 HD
BRANCH  26  28
HETATM   28  C   UNL     1       3.667  -0.078  -0.680  1.00  0.00     0.035 A 
HETATM   29  C   UNL     1       4.067   0.213   0.625  1.00  0.00     0.056 A 
HETATM   30  C   UNL     1       5.281   0.860   0.854  1.00  0.00     0.074 A 
HETATM   31 CL   UNL     1       5.770   1.215   2.466  1.00  0.00    -0.081 Cl
HETATM   32  C   UNL     1       6.096   1.216  -0.221  1.00  0.00     0.138 A 
HETATM   33  F   UNL     1       7.266   1.837  -0.016  1.00  0.00    -0.204 F 
HETATM   34  C   UNL     1       5.696   0.925  -1.525  1.00  0.00     0.046 A 
HETATM   35  C   UNL     1       4.482   0.278  -1.755  1.00  0.00     0.032 A 
ENDBRANCH  26  28
ENDBRANCH   9  26
TORSDOF 12
