REMARK  11 active torsions:
REMARK  status: ('A' for Active; 'I' for Inactive)
REMARK    1  A    between atoms: O_3  and  C_15 
REMARK    2  A    between atoms: O_3  and  C_21 
REMARK    3  A    between atoms: O_4  and  C_25 
REMARK    4  A    between atoms: N_6  and  C_14 
REMARK    5  A    between atoms: N_7  and  C_23 
REMARK    6  A    between atoms: N_7  and  C_26 
REMARK    7  A    between atoms: N_8  and  C_16 
REMARK       I    between atoms: N_8  and  C_30 
REMARK    8  A    between atoms: C_14  and  C_17 
REMARK    9  A    between atoms: C_17  and  C_25 
REMARK   10  A    between atoms: C_21  and  C_22 
REMARK   11  A    between atoms: C_30  and  C_34 
ROOT
HETATM    1  N   UNL     1       1.805   3.578  -0.625  1.00  0.00    -0.241 NA
HETATM    2  N   UNL     1       3.801   2.228  -0.637  1.00  0.00    -0.224 NA
HETATM    3  C   UNL     1       1.620   1.188  -0.715  1.00  0.00     0.041 A 
HETATM    4  C   UNL     1      -1.151   1.419  -0.757  1.00  0.00     0.098 A 
HETATM    5  C   UNL     1      -0.570   0.156  -0.792  1.00  0.00     0.069 A 
HETATM    6  C   UNL     1       1.045   2.469  -0.679  1.00  0.00     0.075 A 
HETATM    7  C   UNL     1       0.816   0.036  -0.771  1.00  0.00     0.050 A 
HETATM    8  C   UNL     1      -0.344   2.559  -0.701  1.00  0.00     0.071 A 
HETATM    9  C   UNL     1       3.011   1.139  -0.691  1.00  0.00     0.142 A 
HETATM   10  C   UNL     1       3.141   3.397  -0.607  1.00  0.00     0.236 A 
ENDROOT
BRANCH   4  11
HETATM   11  O   UNL     1      -2.506   1.568  -0.775  1.00  0.00    -0.343 OA
BRANCH  11  12
HETATM   12  C   UNL     1      -3.099   2.230   0.340  1.00  0.00     0.238 C 
BRANCH  12  13
HETATM   13  C   UNL     1      -4.474   1.674   0.564  1.00  0.00     0.093 A 
HETATM   14  N   UNL     1      -5.517   2.004  -0.258  1.00  0.00    -0.161 NA
HETATM   15  N   UNL     1      -6.597   1.365   0.178  1.00  0.00     0.004 NA
HETATM   16  N   UNL     1      -6.231   0.650   1.254  1.00  0.00    -0.283 N 
HETATM   17  C   UNL     1      -4.910   0.810   1.537  1.00  0.00     0.138 A 
BRANCH  16  18
HETATM   18  C   UNL     1      -7.190  -0.164   1.957  1.00  0.00     0.148 C 
BRANCH  18  19
HETATM   19  C   UNL     1      -7.896  -1.191   1.069  1.00  0.00     0.047 C 
BRANCH  19  20
HETATM   20  C   UNL     1      -6.951  -2.237   0.488  1.00  0.00     0.165 C 
BRANCH  20  21
HETATM   21  O   UNL     1      -7.708  -3.147  -0.300  1.00  0.00    -0.401 OA
HETATM   22  H   UNL     1      -7.084  -3.804  -0.654  1.00  0.00     0.209 HD
ENDBRANCH  20  21
ENDBRANCH  19  20
ENDBRANCH  18  19
ENDBRANCH  16  18
ENDBRANCH  12  13
ENDBRANCH  11  12
ENDBRANCH   4  11
BRANCH   5  23
HETATM   23  N   UNL     1      -1.361  -0.994  -0.847  1.00  0.00    -0.321 N 
HETATM   24  C   UNL     1      -0.939  -2.329  -0.887  1.00  0.00     0.245 C 
HETATM   25  O   UNL     1       0.215  -2.742  -0.880  1.00  0.00    -0.268 OA
HETATM   26  H   UNL     1      -2.364  -0.818  -0.858  1.00  0.00     0.169 HD
BRANCH  24  27
HETATM   27  C   UNL     1      -2.096  -3.269  -0.942  1.00  0.00     0.064 C 
HETATM   28  C   UNL     1      -1.898  -4.590  -0.985  1.00  0.00     0.017 C 
ENDBRANCH  24  27
ENDBRANCH   5  23
BRANCH   9  29
HETATM   29  N   UNL     1       3.662  -0.119  -0.724  1.00  0.00    -0.340 N 
HETATM   30  H   UNL     1       3.278  -0.743  -1.429  1.00  0.00     0.167 HD
BRANCH  29  31
HETATM   31  C   UNL     1       4.885  -0.567  -0.199  1.00  0.00     0.035 A 
HETATM   32  C   UNL     1       5.397   0.007   0.965  1.00  0.00     0.056 A 
HETATM   33  C   UNL     1       6.612  -0.437   1.486  1.00  0.00     0.074 A 
HETATM   34 CL   UNL     1       7.238   0.275   2.923  1.00  0.00    -0.081 Cl
HETATM   35  C   UNL     1       7.315  -1.456   0.843  1.00  0.00     0.138 A 
HETATM   36  F   UNL     1       8.484  -1.894   1.333  1.00  0.00    -0.204 F 
HETATM   37  C   UNL     1       6.804  -2.030  -0.321  1.00  0.00     0.046 A 
HETATM   38  C   UNL     1       5.589  -1.585  -0.842  1.00  0.00     0.032 A 
ENDBRANCH  29  31
ENDBRANCH   9  29
TORSDOF 11
