REMARK  9 active torsions:
REMARK  status: ('A' for Active; 'I' for Inactive)
REMARK    1  A    between atoms: O_3  and  C_13 
REMARK    2  A    between atoms: O_3  and  C_14 
REMARK    3  A    between atoms: O_4  and  C_17 
REMARK    4  A    between atoms: O_6  and  N_10 
REMARK    5  A    between atoms: N_7  and  C_18 
REMARK    6  A    between atoms: N_7  and  C_21 
REMARK       I    between atoms: N_10  and  C_22 
REMARK    7  A    between atoms: C_12  and  C_14 
REMARK    8  A    between atoms: C_12  and  C_19 
REMARK    9  A    between atoms: C_19  and  C_22 
ROOT
HETATM    1  N   UNL     1       0.689  -3.711   1.204  1.00  0.00    -0.241 NA
HETATM    2  N   UNL     1       2.532  -2.328   0.499  1.00  0.00    -0.224 NA
HETATM    3  C   UNL     1       0.279  -1.821  -0.214  1.00  0.00     0.042 A 
HETATM    4  C   UNL     1      -1.982  -1.320  -0.924  1.00  0.00     0.103 A 
HETATM    5  C   UNL     1      -0.167  -2.935   0.515  1.00  0.00     0.075 A 
HETATM    6  C   UNL     1      -0.624  -1.016  -0.930  1.00  0.00     0.057 A 
HETATM    7  C   UNL     1      -2.436  -2.420  -0.206  1.00  0.00     0.103 A 
HETATM    8  C   UNL     1       1.649  -1.573  -0.179  1.00  0.00     0.142 A 
HETATM    9  C   UNL     1      -1.531  -3.215   0.504  1.00  0.00     0.072 A 
HETATM   10  C   UNL     1       1.991  -3.366   1.158  1.00  0.00     0.236 A 
ENDROOT
BRANCH   4  11
HETATM   11  O   UNL     1      -2.858  -0.531  -1.623  1.00  0.00    -0.348 OA
BRANCH  11  12
HETATM   12  C   UNL     1      -2.923   0.840  -1.252  1.00  0.00     0.176 C 
BRANCH  12  13
HETATM   13  C   UNL     1      -4.339   1.347  -1.496  1.00  0.00     0.036 C 
BRANCH  13  14
HETATM   14  C   UNL     1      -4.507   2.820  -1.140  1.00  0.00     0.107 C 
BRANCH  14  15
HETATM   15  C   UNL     1      -4.225   3.131   0.320  1.00  0.00     0.240 C 
HETATM   16  O   UNL     1      -3.118   3.460   0.737  1.00  0.00    -0.271 OA
HETATM   17  N   UNL     1      -5.359   3.027   1.089  1.00  0.00    -0.237 N 
HETATM   18  H   UNL     1      -6.304   2.879   0.756  1.00  0.00     0.197 HD
BRANCH  17  19
HETATM   19  O   UNL     1      -5.202   3.326   2.449  1.00  0.00    -0.287 OA
HETATM   20  H   UNL     1      -5.068   2.433   2.808  1.00  0.00     0.244 HD
ENDBRANCH  17  19
ENDBRANCH  14  15
ENDBRANCH  13  14
ENDBRANCH  12  13
ENDBRANCH  11  12
ENDBRANCH   4  11
BRANCH   7  21
HETATM   21  O   UNL     1      -3.761  -2.736  -0.185  1.00  0.00    -0.353 OA
HETATM   22  C   UNL     1      -4.550  -2.152   0.849  1.00  0.00     0.210 C 
ENDBRANCH   7  21
BRANCH   8  23
HETATM   23  N   UNL     1       2.173  -0.465  -0.891  1.00  0.00    -0.340 N 
HETATM   24  H   UNL     1       1.796  -0.387  -1.832  1.00  0.00     0.167 HD
BRANCH  23  25
HETATM   25  C   UNL     1       3.285   0.363  -0.670  1.00  0.00     0.035 A 
HETATM   26  C   UNL     1       3.727   0.605   0.631  1.00  0.00     0.056 A 
HETATM   27  C   UNL     1       4.832   1.428   0.850  1.00  0.00     0.074 A 
HETATM   28 CL   UNL     1       5.374   1.723   2.457  1.00  0.00    -0.081 Cl
HETATM   29  C   UNL     1       5.494   2.008  -0.231  1.00  0.00     0.138 A 
HETATM   30  F   UNL     1       6.558   2.801  -0.036  1.00  0.00    -0.204 F 
HETATM   31  C   UNL     1       5.052   1.766  -1.532  1.00  0.00     0.046 A 
HETATM   32  C   UNL     1       3.947   0.944  -1.751  1.00  0.00     0.032 A 
ENDBRANCH  23  25
ENDBRANCH   8  23
TORSDOF 9
