REMARK  12 active torsions:
REMARK  status: ('A' for Active; 'I' for Inactive)
REMARK    1  A    between atoms: O_3  and  C_19 
REMARK    2  A    between atoms: O_3  and  C_24 
REMARK    3  A    between atoms: O_5  and  N_14 
REMARK    4  A    between atoms: N_7  and  C_15 
REMARK    5  A    between atoms: N_10  and  C_27 
REMARK    6  A    between atoms: N_10  and  C_29 
REMARK    7  A    between atoms: N_11  and  C_20 
REMARK       I    between atoms: N_11  and  C_31 
REMARK       I    between atoms: N_14  and  C_28 
REMARK    8  A    between atoms: C_15  and  C_16 
REMARK    9  A    between atoms: C_16  and  C_17 
REMARK   10  A    between atoms: C_17  and  C_28 
REMARK   11  A    between atoms: C_21  and  C_24 
REMARK   12  A    between atoms: C_31  and  C_37 
ROOT
HETATM    1  N   UNL     1      -0.012  -0.930   3.803  1.00  0.00    -0.241 NA
HETATM    2  N   UNL     1       2.178  -0.660   2.834  1.00  0.00    -0.224 NA
HETATM    3  C   UNL     1       0.287  -1.239   1.443  1.00  0.00     0.041 A 
HETATM    4  C   UNL     1      -2.424  -1.800   1.188  1.00  0.00     0.098 A 
HETATM    5  C   UNL     1      -1.613  -1.820   0.058  1.00  0.00     0.069 A 
HETATM    6  C   UNL     1      -0.521  -1.216   2.592  1.00  0.00     0.075 A 
HETATM    7  C   UNL     1      -0.256  -1.540   0.182  1.00  0.00     0.050 A 
HETATM    8  C   UNL     1      -1.876  -1.500   2.438  1.00  0.00     0.071 A 
HETATM    9  C   UNL     1       1.635  -0.950   1.636  1.00  0.00     0.142 A 
HETATM   10  C   UNL     1       1.310  -0.668   3.858  1.00  0.00     0.236 A 
ENDROOT
BRANCH   4  11
HETATM   11  O   UNL     1      -3.757  -2.071   1.099  1.00  0.00    -0.343 OA
BRANCH  11  12
HETATM   12  C   UNL     1      -4.655  -1.046   1.518  1.00  0.00     0.238 C 
BRANCH  12  13
HETATM   13  C   UNL     1      -4.449   0.167   0.658  1.00  0.00     0.093 A 
HETATM   14  N   UNL     1      -4.631   0.118  -0.696  1.00  0.00    -0.161 NA
HETATM   15  N   UNL     1      -4.384   1.328  -1.185  1.00  0.00     0.004 NA
HETATM   16  N   UNL     1      -4.053   2.117  -0.149  1.00  0.00    -0.283 N 
HETATM   17  C   UNL     1      -4.079   1.435   1.029  1.00  0.00     0.138 A 
BRANCH  16  18
HETATM   18  C   UNL     1      -3.728   3.505  -0.356  1.00  0.00     0.146 C 
BRANCH  18  19
HETATM   19  C   UNL     1      -2.299   3.743  -0.863  1.00  0.00     0.031 C 
BRANCH  19  20
HETATM   20  C   UNL     1      -1.206   3.142   0.023  1.00  0.00     0.106 C 
BRANCH  20  21
HETATM   21  C   UNL     1       0.198   3.332  -0.524  1.00  0.00     0.240 C 
HETATM   22  O   UNL     1       0.909   4.290  -0.231  1.00  0.00    -0.271 OA
HETATM   23  N   UNL     1       0.574   2.292  -1.339  1.00  0.00    -0.237 N 
HETATM   24  H   UNL     1       0.042   1.449  -1.525  1.00  0.00     0.197 HD
BRANCH  23  25
HETATM   25  O   UNL     1       1.874   2.359  -1.857  1.00  0.00    -0.287 OA
HETATM   26  H   UNL     1       2.105   1.415  -1.872  1.00  0.00     0.244 HD
ENDBRANCH  23  25
ENDBRANCH  20  21
ENDBRANCH  19  20
ENDBRANCH  18  19
ENDBRANCH  16  18
ENDBRANCH  12  13
ENDBRANCH  11  12
ENDBRANCH   4  11
BRANCH   5  27
HETATM   27  N   UNL     1      -2.144  -2.118  -1.199  1.00  0.00    -0.321 N 
HETATM   28  C   UNL     1      -1.472  -2.180  -2.426  1.00  0.00     0.245 C 
HETATM   29  O   UNL     1      -0.280  -1.982  -2.628  1.00  0.00    -0.268 OA
HETATM   30  H   UNL     1      -3.144  -2.309  -1.201  1.00  0.00     0.169 HD
BRANCH  28  31
HETATM   31  C   UNL     1      -2.398  -2.532  -3.542  1.00  0.00     0.064 C 
HETATM   32  C   UNL     1      -1.943  -2.640  -4.794  1.00  0.00     0.017 C 
ENDBRANCH  28  31
ENDBRANCH   5  27
BRANCH   9  33
HETATM   33  N   UNL     1       2.513  -0.955   0.524  1.00  0.00    -0.338 N 
HETATM   34  H   UNL     1       2.391  -1.768  -0.073  1.00  0.00     0.167 HD
BRANCH  33  35
HETATM   35  C   UNL     1       3.688  -0.239   0.242  1.00  0.00     0.074 A 
HETATM   36  C   UNL     1       4.680  -0.807  -0.557  1.00  0.00     0.164 A 
HETATM   37  F   UNL     1       4.509  -2.041  -1.057  1.00  0.00    -0.202 F 
HETATM   38  C   UNL     1       5.845  -0.094  -0.835  1.00  0.00     0.074 A 
HETATM   39 CL   UNL     1       7.074  -0.789  -1.821  1.00  0.00    -0.081 Cl
HETATM   40  C   UNL     1       6.019   1.188  -0.314  1.00  0.00     0.027 A 
HETATM   41  C   UNL     1       5.027   1.757   0.485  1.00  0.00     0.004 A 
HETATM   42  C   UNL     1       3.862   1.043   0.763  1.00  0.00     0.033 A 
ENDBRANCH  33  35
ENDBRANCH   9  33
TORSDOF 12
