REMARK  7 active torsions:
REMARK  status: ('A' for Active; 'I' for Inactive)
REMARK    1  A    between atoms: O_1  and  C_20 
REMARK    2  A    between atoms: O_1  and  C_21 
REMARK    3  A    between atoms: N_3  and  C_14 
REMARK    4  A    between atoms: N_4  and  C_12 
REMARK    5  A    between atoms: N_4  and  C_18 
REMARK       I    between atoms: N_7  and  C_26 
REMARK    6  A    between atoms: C_14  and  C_23 
REMARK    7  A    between atoms: C_21  and  C_26 
ROOT
HETATM    1  N   UNL     1       1.789   3.212  -0.232  1.00  0.00    -0.223 NA
HETATM    2  N   UNL     1       3.950   3.820   0.645  1.00  0.00    -0.241 NA
HETATM    3  C   UNL     1       3.531   1.551  -0.008  1.00  0.00     0.072 A 
HETATM    4  C   UNL     1       2.245   1.951  -0.359  1.00  0.00     0.144 A 
HETATM    5  C   UNL     1       3.986   0.231  -0.148  1.00  0.00     0.086 A 
HETATM    6  C   UNL     1       4.372   2.551   0.505  1.00  0.00     0.075 A 
HETATM    7  C   UNL     1       5.282  -0.108   0.220  1.00  0.00     0.038 A 
HETATM    8  C   UNL     1       5.667   2.188   0.868  1.00  0.00     0.033 A 
HETATM    9  C   UNL     1       6.124   0.874   0.730  1.00  0.00     0.005 A 
HETATM   10  C   UNL     1       2.682   4.081   0.269  1.00  0.00     0.236 A 
ENDROOT
BRANCH   4  11
HETATM   11  N   UNL     1       1.316   1.024  -0.886  1.00  0.00    -0.340 N 
HETATM   12  H   UNL     1       1.729   0.397  -1.571  1.00  0.00     0.167 HD
BRANCH  11  13
HETATM   13  C   UNL     1      -0.086   0.945  -0.826  1.00  0.00     0.034 A 
HETATM   14  C   UNL     1      -0.764   1.459   0.290  1.00  0.00     0.044 A 
HETATM   15  C   UNL     1      -2.166   1.369   0.331  1.00  0.00     0.014 A 
HETATM   16  C   UNL     1      -2.841   0.777  -0.730  1.00  0.00     0.065 A 
HETATM   17  C   UNL     1      -3.187   1.746   1.229  1.00  0.00     0.152 A 
HETATM   18  N   UNL     1      -4.167   0.843  -0.395  1.00  0.00    -0.264 N 
HETATM   19  C   UNL     1      -2.192   0.258  -1.852  1.00  0.00     0.034 A 
HETATM   20  N   UNL     1      -4.407   1.427   0.790  1.00  0.00    -0.183 NA
HETATM   21  C   UNL     1      -0.796   0.354  -1.878  1.00  0.00     0.032 A 
BRANCH  18  22
HETATM   22  C   UNL     1      -5.280   0.358  -1.179  1.00  0.00     0.210 C 
BRANCH  22  23
HETATM   23  C   UNL     1      -6.262  -0.401  -0.327  1.00  0.00     0.054 A 
HETATM   24  N   UNL     1      -7.250   0.325   0.228  1.00  0.00    -0.264 NA
HETATM   25  C   UNL     1      -8.130  -0.361   0.992  1.00  0.00     0.117 A 
HETATM   26  C   UNL     1      -8.059  -1.726   1.219  1.00  0.00     0.019 A 
HETATM   27  C   UNL     1      -7.020  -2.432   0.623  1.00  0.00     0.003 A 
HETATM   28  C   UNL     1      -6.095  -1.761  -0.169  1.00  0.00     0.029 A 
ENDBRANCH  22  23
ENDBRANCH  18  22
ENDBRANCH  11  13
ENDBRANCH   4  11
BRANCH   5  29
HETATM   29  O   UNL     1       3.212  -0.784  -0.643  1.00  0.00    -0.336 OA
BRANCH  29  30
HETATM   30  C   UNL     1       2.985  -1.894   0.219  1.00  0.00     0.216 C 
HETATM   31  C   UNL     1       1.487  -2.028   0.451  1.00  0.00     0.050 C 
BRANCH  30  32
HETATM   32  C   UNL     1       3.565  -3.145  -0.438  1.00  0.00     0.248 C 
HETATM   33  O   UNL     1       3.528  -3.253  -1.669  1.00  0.00    -0.270 OA
HETATM   34  N   UNL     1       4.120  -4.118   0.397  1.00  0.00    -0.359 N 
HETATM   35  C   UNL     1       4.158  -3.979   1.851  1.00  0.00     0.152 C 
HETATM   36  C   UNL     1       4.705  -5.352  -0.116  1.00  0.00     0.152 C 
ENDBRANCH  30  32
ENDBRANCH  29  30
ENDBRANCH   5  29
TORSDOF 7
