REMARK  11 active torsions:
REMARK  status: ('A' for Active; 'I' for Inactive)
REMARK    1  A    between atoms: O_3  and  C_14 
REMARK    2  A    between atoms: O_3  and  C_16 
REMARK    3  A    between atoms: O_4  and  C_19 
REMARK    4  A    between atoms: O_6  and  N_10 
REMARK    5  A    between atoms: N_7  and  C_22 
REMARK    6  A    between atoms: N_7  and  C_24 
REMARK       I    between atoms: N_10  and  C_23 
REMARK    7  A    between atoms: C_11  and  C_12 
REMARK    8  A    between atoms: C_11  and  C_13 
REMARK    9  A    between atoms: C_12  and  C_14 
REMARK   10  A    between atoms: C_13  and  C_15 
REMARK   11  A    between atoms: C_15  and  C_23 
ROOT
HETATM    1  N   UNL     1      -3.152   3.681  -0.697  1.00  0.00    -0.241 NA
HETATM    2  N   UNL     1      -4.280   1.586  -0.315  1.00  0.00    -0.224 NA
HETATM    3  C   UNL     1       0.429   2.063   0.695  1.00  0.00     0.103 A 
HETATM    4  C   UNL     1      -1.928   1.819   0.191  1.00  0.00     0.042 A 
HETATM    5  C   UNL     1      -0.718   1.277   0.660  1.00  0.00     0.057 A 
HETATM    6  C   UNL     1       0.370   3.384   0.264  1.00  0.00     0.103 A 
HETATM    7  C   UNL     1      -2.000   3.152  -0.247  1.00  0.00     0.075 A 
HETATM    8  C   UNL     1      -0.837   3.916  -0.200  1.00  0.00     0.072 A 
HETATM    9  C   UNL     1      -3.111   1.088   0.130  1.00  0.00     0.142 A 
HETATM   10  C   UNL     1      -4.229   2.869  -0.707  1.00  0.00     0.236 A 
ENDROOT
BRANCH   3  11
HETATM   11  O   UNL     1       1.605   1.528   1.155  1.00  0.00    -0.348 OA
BRANCH  11  12
HETATM   12  C   UNL     1       2.114   0.402   0.452  1.00  0.00     0.176 C 
BRANCH  12  13
HETATM   13  C   UNL     1       3.634   0.423   0.533  1.00  0.00     0.027 C 
BRANCH  13  14
HETATM   14  C   UNL     1       4.305  -0.759  -0.169  1.00  0.00     0.002 C 
BRANCH  14  15
HETATM   15  C   UNL     1       5.833  -0.745  -0.050  1.00  0.00     0.009 C 
BRANCH  15  16
HETATM   16  C   UNL     1       6.484  -1.900  -0.812  1.00  0.00     0.105 C 
BRANCH  16  17
HETATM   17  C   UNL     1       7.993  -1.962  -0.658  1.00  0.00     0.240 C 
HETATM   18  O   UNL     1       8.772  -1.366  -1.398  1.00  0.00    -0.271 OA
HETATM   19  N   UNL     1       8.362  -2.734   0.416  1.00  0.00    -0.237 N 
HETATM   20  H   UNL     1       7.756  -3.321   0.978  1.00  0.00     0.197 HD
BRANCH  19  21
HETATM   21  O   UNL     1       9.740  -2.826   0.656  1.00  0.00    -0.287 OA
HETATM   22  H   UNL     1       9.844  -2.133   1.330  1.00  0.00     0.244 HD
ENDBRANCH  19  21
ENDBRANCH  16  17
ENDBRANCH  15  16
ENDBRANCH  14  15
ENDBRANCH  13  14
ENDBRANCH  12  13
ENDBRANCH  11  12
ENDBRANCH   3  11
BRANCH   6  23
HETATM   23  O   UNL     1       1.481   4.171   0.290  1.00  0.00    -0.353 OA
HETATM   24  C   UNL     1       1.335   5.514  -0.169  1.00  0.00     0.210 C 
ENDBRANCH   6  23
BRANCH   9  25
HETATM   25  N   UNL     1      -3.115  -0.264   0.555  1.00  0.00    -0.340 N 
HETATM   26  H   UNL     1      -2.627  -0.401   1.437  1.00  0.00     0.167 HD
BRANCH  25  27
HETATM   27  C   UNL     1      -3.872  -1.379   0.161  1.00  0.00     0.035 A 
HETATM   28  C   UNL     1      -4.150  -2.393   1.078  1.00  0.00     0.056 A 
HETATM   29  C   UNL     1      -4.902  -3.500   0.686  1.00  0.00     0.074 A 
HETATM   30 CL   UNL     1      -5.242  -4.749   1.821  1.00  0.00    -0.081 Cl
HETATM   31  C   UNL     1      -5.377  -3.593  -0.623  1.00  0.00     0.138 A 
HETATM   32  F   UNL     1      -6.102  -4.651  -1.015  1.00  0.00    -0.204 F 
HETATM   33  C   UNL     1      -5.098  -2.579  -1.539  1.00  0.00     0.046 A 
HETATM   34  C   UNL     1      -4.346  -1.471  -1.147  1.00  0.00     0.032 A 
ENDBRANCH  25  27
ENDBRANCH   9  25
TORSDOF 11
