REMARK  9 active torsions:
REMARK  status: ('A' for Active; 'I' for Inactive)
REMARK    1  A    between atoms: O_2  and  C_18 
REMARK    2  A    between atoms: O_2  and  C_28 
REMARK    3  A    between atoms: N_6  and  C_22 
REMARK    4  A    between atoms: N_6  and  C_23 
REMARK    5  A    between atoms: N_7  and  C_20 
REMARK       I    between atoms: N_7  and  C_28 
REMARK    6  A    between atoms: N_9  and  C_31 
REMARK    7  A    between atoms: C_12  and  C_18 
REMARK    8  A    between atoms: C_15  and  C_21 
REMARK    9  A    between atoms: C_31  and  C_34 
ROOT
HETATM    1  N   UNL     1      -3.325   2.491  -0.165  1.00  0.00    -0.239 NA
HETATM    2  N   UNL     1      -1.473   3.924   0.584  1.00  0.00    -0.250 NA
HETATM    3  N   UNL     1       0.740   3.185   0.027  1.00  0.00    -0.224 NA
HETATM    4  C   UNL     1      -1.122   1.815  -0.560  1.00  0.00     0.043 A 
HETATM    5  C   UNL     1      -1.806   0.674  -0.504  1.00  0.00     0.001 A 
HETATM    6  C   UNL     1      -1.977   3.024  -0.452  1.00  0.00     0.270 A 
HETATM    7  C   UNL     1      -3.159   1.202  -0.257  1.00  0.00     0.136 A 
HETATM    8  C   UNL     1       0.330   2.099  -0.586  1.00  0.00     0.140 C 
HETATM    9  C   UNL     1      -0.184   3.950   0.713  1.00  0.00     0.232 C 
ENDROOT
BRANCH   8  10
HETATM   10  N   UNL     1       1.212   1.270  -1.233  1.00  0.00    -0.340 N 
HETATM   11  H   UNL     1       0.865   0.692  -1.993  1.00  0.00     0.167 HD
BRANCH  10  12
HETATM   12  C   UNL     1       2.546   1.046  -0.898  1.00  0.00     0.034 A 
HETATM   13  C   UNL     1       2.945   1.143   0.441  1.00  0.00     0.044 A 
HETATM   14  C   UNL     1       4.295   0.913   0.757  1.00  0.00     0.014 A 
HETATM   15  C   UNL     1       5.188   0.598  -0.261  1.00  0.00     0.065 A 
HETATM   16  C   UNL     1       5.082   0.910   1.928  1.00  0.00     0.152 A 
HETATM   17  N   UNL     1       6.398   0.436   0.359  1.00  0.00    -0.265 N 
HETATM   18  C   UNL     1       4.810   0.495  -1.601  1.00  0.00     0.034 A 
HETATM   19  N   UNL     1       6.364   0.620   1.690  1.00  0.00    -0.183 NA
HETATM   20  C   UNL     1       3.464   0.727  -1.900  1.00  0.00     0.032 A 
BRANCH  17  21
HETATM   21  C   UNL     1       7.653   0.100  -0.273  1.00  0.00     0.190 C 
BRANCH  21  22
HETATM   22  C   UNL     1       8.039  -1.348  -0.102  1.00  0.00    -0.038 A 
HETATM   23  C   UNL     1       8.580  -1.788   1.106  1.00  0.00     0.009 A 
HETATM   24  C   UNL     1       8.938  -3.127   1.263  1.00  0.00     0.001 A 
HETATM   25  C   UNL     1       8.753  -4.026   0.213  1.00  0.00     0.000 A 
HETATM   26  C   UNL     1       8.212  -3.586  -0.995  1.00  0.00     0.001 A 
HETATM   27  C   UNL     1       7.855  -2.247  -1.152  1.00  0.00     0.009 A 
ENDBRANCH  21  22
ENDBRANCH  17  21
ENDBRANCH  10  12
ENDBRANCH   8  10
BRANCH   5  28
HETATM   28  C   UNL     1      -1.405  -0.748  -0.489  1.00  0.00     0.039 C 
HETATM   29  C   UNL     1      -1.184  -1.276   0.923  1.00  0.00     0.010 C 
ENDBRANCH   5  28
BRANCH   7  30
HETATM   30  N   UNL     1      -4.183   0.318  -0.108  1.00  0.00    -0.287 N 
HETATM   31  C   UNL     1      -5.496   0.689   0.127  1.00  0.00     0.366 C 
HETATM   32  O   UNL     1      -5.909   1.840   0.231  1.00  0.00    -0.238 OA
HETATM   33  H   UNL     1      -4.001  -0.679  -0.169  1.00  0.00     0.172 HD
BRANCH  31  34
HETATM   34  O   UNL     1      -6.276  -0.428   0.228  1.00  0.00    -0.302 OA
BRANCH  34  35
HETATM   35  C   UNL     1      -7.668  -0.197   0.472  1.00  0.00     0.218 C 
BRANCH  35  36
HETATM   36  C   UNL     1      -8.387  -1.540   0.556  1.00  0.00     0.268 C 
HETATM   37  N   UNL     1      -9.809  -1.317   0.862  1.00  0.00     0.094 N 
HETATM   38  C   UNL     1     -10.520  -2.598   0.894  1.00  0.00     0.296 C 
HETATM   39  H   UNL     1     -10.219  -0.729   0.135  1.00  0.00     0.316 HD
HETATM   40  C   UNL     1     -10.332  -3.354  -0.415  1.00  0.00     0.197 C 
HETATM   41  O   UNL     1      -8.942  -3.566  -0.667  1.00  0.00    -0.387 OA
HETATM   42  C   UNL     1      -8.245  -2.321  -0.754  1.00  0.00     0.205 C 
ENDBRANCH  35  36
ENDBRANCH  34  35
ENDBRANCH  31  34
ENDBRANCH   7  30
TORSDOF 9
