REMARK  5 active torsions:
REMARK  status: ('A' for Active; 'I' for Inactive)
REMARK    1  A    between atoms: N_1  and  C_10 
REMARK    2  A    between atoms: N_3  and  C_11 
REMARK    3  A    between atoms: N_3  and  C_17 
REMARK    4  A    between atoms: N_7  and  C_26 
REMARK    5  A    between atoms: C_10  and  C_16 
ROOT
HETATM    1  N   UNL     1       3.297   0.814   1.048  1.00  0.00    -0.265 N 
HETATM    2  N   UNL     1       3.329   0.097   2.184  1.00  0.00    -0.183 NA
HETATM    3  C   UNL     1       2.065   0.870   0.456  1.00  0.00     0.065 A 
HETATM    4  C   UNL     1       1.228   0.126   1.280  1.00  0.00     0.014 A 
HETATM    5  C   UNL     1      -0.592   0.612  -0.226  1.00  0.00     0.034 A 
HETATM    6  C   UNL     1      -0.129  -0.011   0.940  1.00  0.00     0.044 A 
HETATM    7  C   UNL     1       1.623   1.499  -0.711  1.00  0.00     0.034 A 
HETATM    8  C   UNL     1       2.069  -0.319   2.322  1.00  0.00     0.152 A 
HETATM    9  C   UNL     1       0.270   1.354  -1.036  1.00  0.00     0.032 A 
ENDROOT
BRANCH   5  10
HETATM   10  N   UNL     1      -1.953   0.487  -0.587  1.00  0.00    -0.340 N 
HETATM   11  H   UNL     1      -2.238   1.160  -1.293  1.00  0.00     0.167 HD
BRANCH  10  12
HETATM   12  C   UNL     1      -2.904  -0.527  -0.373  1.00  0.00     0.142 A 
HETATM   13  N   UNL     1      -2.440  -1.789  -0.292  1.00  0.00    -0.224 NA
HETATM   14  C   UNL     1      -3.384  -2.723  -0.087  1.00  0.00     0.236 A 
HETATM   15  N   UNL     1      -4.711  -2.524   0.041  1.00  0.00    -0.240 NA
HETATM   16  C   UNL     1      -5.135  -1.249  -0.046  1.00  0.00     0.089 A 
HETATM   17  C   UNL     1      -4.249  -0.187  -0.258  1.00  0.00     0.044 A 
HETATM   18  C   UNL     1      -6.474  -0.910   0.069  1.00  0.00     0.151 A 
HETATM   19  C   UNL     1      -4.720   1.130  -0.344  1.00  0.00     0.067 A 
HETATM   20  C   UNL     1      -6.080   1.337  -0.214  1.00  0.00     0.121 A 
HETATM   21  N   UNL     1      -6.973   0.347  -0.009  1.00  0.00    -0.241 NA
BRANCH  20  22
HETATM   22  N   UNL     1      -6.548   2.672  -0.300  1.00  0.00    -0.384 N 
HETATM   23  H   UNL     1      -5.925   3.420  -0.025  1.00  0.00     0.157 HD
HETATM   24  H   UNL     1      -7.545   2.816  -0.197  1.00  0.00     0.157 HD
ENDBRANCH  20  22
ENDBRANCH  10  12
ENDBRANCH   5  10
BRANCH   1  25
HETATM   25  C   UNL     1       4.512   1.435   0.573  1.00  0.00     0.190 C 
BRANCH  25  26
HETATM   26  C   UNL     1       5.450   0.469  -0.108  1.00  0.00    -0.038 A 
HETATM   27  C   UNL     1       6.240  -0.391   0.654  1.00  0.00     0.009 A 
HETATM   28  C   UNL     1       7.107  -1.284   0.024  1.00  0.00     0.001 A 
HETATM   29  C   UNL     1       7.183  -1.317  -1.369  1.00  0.00     0.000 A 
HETATM   30  C   UNL     1       6.393  -0.457  -2.131  1.00  0.00     0.001 A 
HETATM   31  C   UNL     1       5.526   0.437  -1.500  1.00  0.00     0.009 A 
ENDBRANCH  25  26
ENDBRANCH   1  25
TORSDOF 5
