REMARK  8 active torsions:
REMARK  status: ('A' for Active; 'I' for Inactive)
REMARK    1  A    between atoms: N_4  and  C_9 
REMARK    2  A    between atoms: N_4  and  C_10 
REMARK    3  A    between atoms: N_4  and  C_11 
REMARK    4  A    between atoms: N_5  and  C_14 
REMARK    5  A    between atoms: N_5  and  C_21 
REMARK    6  A    between atoms: N_6  and  C_18 
REMARK       I    between atoms: N_6  and  C_26 
REMARK    7  A    between atoms: C_11  and  C_22 
REMARK    8  A    between atoms: C_26  and  C_27 
ROOT
HETATM    1  N   UNL     1       2.793   3.921  -0.039  1.00  0.00    -0.241 NA
HETATM    2  N   UNL     1       3.885   1.822  -0.498  1.00  0.00    -0.224 NA
HETATM    3  C   UNL     1       1.482   1.924  -0.254  1.00  0.00     0.041 A 
HETATM    4  C   UNL     1       1.597   3.305  -0.031  1.00  0.00     0.072 A 
HETATM    5  C   UNL     1       2.672   1.238  -0.483  1.00  0.00     0.142 A 
HETATM    6  C   UNL     1       0.227   1.291  -0.243  1.00  0.00     0.047 A 
HETATM    7  C   UNL     1      -0.925   2.036  -0.009  1.00  0.00     0.036 A 
HETATM    8  C   UNL     1       0.428   4.026   0.202  1.00  0.00     0.035 A 
HETATM    9  C   UNL     1      -0.824   3.405   0.214  1.00  0.00     0.032 A 
HETATM   10  C   UNL     1       3.872   3.145  -0.272  1.00  0.00     0.236 A 
ENDROOT
BRANCH   7  11
HETATM   11  N   UNL     1      -2.174   1.414   0.004  1.00  0.00    -0.316 N 
HETATM   12  C   UNL     1      -3.424   1.997   0.220  1.00  0.00     0.301 C 
HETATM   13  O   UNL     1      -3.680   3.171   0.443  1.00  0.00    -0.258 OA
HETATM   14  H   UNL     1      -2.161   0.410  -0.168  1.00  0.00     0.170 HD
BRANCH  12  15
HETATM   15  C   UNL     1      -4.533   1.067   0.167  1.00  0.00    -0.004 C 
HETATM   16  C   UNL     1      -5.453   0.296   0.123  1.00  0.00    -0.066 C 
BRANCH  16  17
HETATM   17  C   UNL     1      -6.577  -0.642   0.068  1.00  0.00     0.366 C 
BRANCH  17  18
HETATM   18  N   UNL     1      -6.108  -2.021   0.126  1.00  0.00     0.098 N 
BRANCH  18  19
HETATM   19  C   UNL     1      -5.218  -2.310  -1.000  1.00  0.00     0.269 C 
HETATM   20  C   UNL     1      -4.718  -3.740  -0.959  1.00  0.00     0.037 C 
ENDBRANCH  18  19
BRANCH  18  21
HETATM   21  C   UNL     1      -7.239  -2.951   0.131  1.00  0.00     0.269 C 
HETATM   22  C   UNL     1      -8.143  -2.719   1.323  1.00  0.00     0.037 C 
ENDBRANCH  18  21
ENDBRANCH  17  18
ENDBRANCH  16  17
ENDBRANCH  12  15
ENDBRANCH   7  11
BRANCH   5  23
HETATM   23  N   UNL     1       2.635  -0.159  -0.717  1.00  0.00    -0.340 N 
HETATM   24  H   UNL     1       1.908  -0.430  -1.373  1.00  0.00     0.167 HD
BRANCH  23  25
HETATM   25  C   UNL     1       3.551  -1.189  -0.449  1.00  0.00     0.035 A 
HETATM   26  C   UNL     1       4.419  -1.093   0.642  1.00  0.00     0.056 A 
HETATM   27  C   UNL     1       5.330  -2.116   0.908  1.00  0.00     0.074 A 
HETATM   28 CL   UNL     1       6.393  -1.987   2.255  1.00  0.00    -0.081 Cl
HETATM   29  C   UNL     1       5.375  -3.240   0.083  1.00  0.00     0.138 A 
HETATM   30  F   UNL     1       6.244  -4.232   0.325  1.00  0.00    -0.204 F 
HETATM   31  C   UNL     1       4.511  -3.341  -1.008  1.00  0.00     0.046 A 
HETATM   32  C   UNL     1       3.601  -2.317  -1.273  1.00  0.00     0.032 A 
ENDBRANCH  23  25
ENDBRANCH   5  23
TORSDOF 8
