REMARK  10 active torsions:
REMARK  status: ('A' for Active; 'I' for Inactive)
REMARK    1  A    between atoms: O_4  and  C_12 
REMARK    2  A    between atoms: O_4  and  C_17 
REMARK    3  A    between atoms: O_6  and  C_30 
REMARK    4  A    between atoms: O_6  and  C_33 
REMARK       I    between atoms: N_8  and  C_17 
REMARK    5  A    between atoms: N_8  and  C_20 
REMARK    6  A    between atoms: N_9  and  C_24 
REMARK    7  A    between atoms: N_9  and  C_26 
REMARK    8  A    between atoms: C_14  and  C_16 
REMARK    9  A    between atoms: C_18  and  C_19 
REMARK   10  A    between atoms: C_33  and  C_34 
ROOT
HETATM    1  S   UNL     1       1.857  -1.205   0.738  1.00  0.00    -0.075 SA
HETATM    2  N   UNL     1       1.043  -3.035  -2.590  1.00  0.00    -0.241 NA
HETATM    3  N   UNL     1      -1.105  -2.323  -1.730  1.00  0.00    -0.223 NA
HETATM    4  C   UNL     1       3.277  -1.783  -0.017  1.00  0.00     0.061 A 
HETATM    5  C   UNL     1       3.008  -2.434  -1.198  1.00  0.00     0.061 A 
HETATM    6  C   UNL     1       0.858  -1.823  -0.513  1.00  0.00     0.081 A 
HETATM    7  C   UNL     1       1.613  -2.464  -1.495  1.00  0.00     0.081 A 
HETATM    8  C   UNL     1      -0.524  -1.762  -0.651  1.00  0.00     0.149 A 
HETATM    9  C   UNL     1      -0.295  -2.919  -2.624  1.00  0.00     0.236 A 
ENDROOT
BRANCH   8  10
HETATM   10  N   UNL     1      -1.325  -1.129   0.317  1.00  0.00    -0.340 N 
HETATM   11  H   UNL     1      -0.811  -0.860   1.152  1.00  0.00     0.167 HD
BRANCH  10  12
HETATM   12  C   UNL     1      -2.717  -0.928   0.424  1.00  0.00     0.035 A 
HETATM   13  C   UNL     1      -3.495  -0.807  -0.728  1.00  0.00     0.056 A 
HETATM   14  C   UNL     1      -4.872  -0.608  -0.621  1.00  0.00     0.069 A 
HETATM   15 CL   UNL     1      -5.811  -0.461  -2.061  1.00  0.00    -0.081 Cl
HETATM   16  C   UNL     1      -5.470  -0.529   0.636  1.00  0.00     0.091 A 
HETATM   17  C   UNL     1      -4.692  -0.650   1.788  1.00  0.00     0.041 A 
HETATM   18  C   UNL     1      -3.316  -0.850   1.682  1.00  0.00     0.032 A 
BRANCH  16  19
HETATM   19  O   UNL     1      -6.813  -0.336   0.771  1.00  0.00    -0.345 OA
BRANCH  19  20
HETATM   20  C   UNL     1      -7.231   0.832   1.474  1.00  0.00     0.214 C 
BRANCH  20  21
HETATM   21  C   UNL     1      -8.572   1.263   0.956  1.00  0.00    -0.031 A 
HETATM   22  C   UNL     1      -8.670   1.895  -0.284  1.00  0.00     0.051 A 
HETATM   23  C   UNL     1      -9.916   2.296  -0.765  1.00  0.00     0.117 A 
HETATM   24  F   UNL     1     -10.011   2.903  -1.955  1.00  0.00    -0.206 F 
HETATM   25  C   UNL     1     -11.064   2.064  -0.007  1.00  0.00     0.042 A 
HETATM   26  C   UNL     1     -10.966   1.432   1.232  1.00  0.00     0.004 A 
HETATM   27  C   UNL     1      -9.719   1.031   1.714  1.00  0.00     0.009 A 
ENDBRANCH  20  21
ENDBRANCH  19  20
ENDBRANCH  16  19
ENDBRANCH  10  12
ENDBRANCH   8  10
BRANCH   4  28
HETATM   28  C   UNL     1       4.584  -1.597   0.535  1.00  0.00    -0.057 C 
HETATM   29  C   UNL     1       5.681  -1.439   0.998  1.00  0.00    -0.065 C 
BRANCH  29  30
HETATM   30  C   UNL     1       7.018  -1.245   1.563  1.00  0.00     0.301 C 
HETATM   31  N   UNL     1       6.999  -0.258   2.643  1.00  0.00     0.102 N 
HETATM   32  C   UNL     1       8.376   0.224   2.758  1.00  0.00     0.303 C 
HETATM   33  H   UNL     1       6.690  -0.679   3.517  1.00  0.00     0.317 HD
HETATM   34  C   UNL     1       8.815   0.366   1.311  1.00  0.00     0.164 C 
HETATM   35  C   UNL     1       8.003  -0.673   0.542  1.00  0.00     0.083 C 
BRANCH  34  36
HETATM   36  O   UNL     1       8.495   1.675   0.851  1.00  0.00    -0.297 OA
BRANCH  36  37
HETATM   37  C   UNL     1       9.292   2.177  -0.145  1.00  0.00     0.360 C 
HETATM   38  O   UNL     1      10.236   1.574  -0.644  1.00  0.00    -0.239 OA
HETATM   39  N   UNL     1       8.872   3.444  -0.492  1.00  0.00    -0.337 N 
HETATM   40  H   UNL     1       8.069   3.831  -0.005  1.00  0.00     0.164 HD
BRANCH  39  41
HETATM   41  C   UNL     1       9.504   4.247  -1.513  1.00  0.00     0.120 C 
HETATM   42  C   UNL     1       9.057   3.833  -2.900  1.00  0.00     0.026 C 
ENDBRANCH  39  41
ENDBRANCH  36  37
ENDBRANCH  34  36
ENDBRANCH  29  30
ENDBRANCH   4  28
TORSDOF 10
