REMARK  9 active torsions:
REMARK  status: ('A' for Active; 'I' for Inactive)
REMARK    1  A    between atoms: O_4  and  C_13 
REMARK    2  A    between atoms: O_4  and  C_18 
REMARK    3  A    between atoms: O_7  and  C_33 
REMARK    4  A    between atoms: O_7  and  C_36 
REMARK       I    between atoms: N_9  and  C_18 
REMARK    5  A    between atoms: N_10  and  C_28 
REMARK    6  A    between atoms: N_10  and  C_29 
REMARK    7  A    between atoms: C_15  and  C_17 
REMARK    8  A    between atoms: C_23  and  C_24 
REMARK    9  A    between atoms: C_36  and  C_37 
ROOT
HETATM    1  S   UNL     1      -1.490   1.705   0.124  1.00  0.00    -0.075 SA
HETATM    2  N   UNL     1       0.193   5.184  -0.257  1.00  0.00    -0.241 NA
HETATM    3  N   UNL     1       2.005   3.591  -0.455  1.00  0.00    -0.223 NA
HETATM    4  C   UNL     1      -2.638   2.966   0.240  1.00  0.00     0.061 A 
HETATM    5  C   UNL     1      -2.059   4.208   0.107  1.00  0.00     0.061 A 
HETATM    6  C   UNL     1      -0.198   2.810  -0.106  1.00  0.00     0.081 A 
HETATM    7  C   UNL     1      -0.649   4.129  -0.094  1.00  0.00     0.081 A 
HETATM    8  C   UNL     1       1.157   2.557  -0.292  1.00  0.00     0.149 A 
HETATM    9  C   UNL     1       1.478   4.829  -0.428  1.00  0.00     0.236 A 
ENDROOT
BRANCH   8  10
HETATM   10  N   UNL     1       1.657   1.242  -0.308  1.00  0.00    -0.340 N 
HETATM   11  H   UNL     1       0.966   0.545  -0.042  1.00  0.00     0.167 HD
BRANCH  10  12
HETATM   12  C   UNL     1       2.954   0.713  -0.473  1.00  0.00     0.035 A 
HETATM   13  C   UNL     1       3.301  -0.491   0.140  1.00  0.00     0.056 A 
HETATM   14  C   UNL     1       4.584  -1.013  -0.024  1.00  0.00     0.069 A 
HETATM   15 CL   UNL     1       4.986  -2.504   0.746  1.00  0.00    -0.081 Cl
HETATM   16  C   UNL     1       5.520  -0.331  -0.801  1.00  0.00     0.091 A 
HETATM   17  C   UNL     1       5.174   0.873  -1.414  1.00  0.00     0.041 A 
HETATM   18  C   UNL     1       3.891   1.395  -1.250  1.00  0.00     0.032 A 
BRANCH  16  19
HETATM   19  O   UNL     1       6.781  -0.818  -0.978  1.00  0.00    -0.345 OA
BRANCH  19  20
HETATM   20  C   UNL     1       7.860   0.003  -0.536  1.00  0.00     0.214 C 
BRANCH  20  21
HETATM   21  C   UNL     1       9.015  -0.872  -0.149  1.00  0.00    -0.031 A 
HETATM   22  C   UNL     1       8.980  -1.584   1.050  1.00  0.00     0.051 A 
HETATM   23  C   UNL     1      10.054  -2.398   1.410  1.00  0.00     0.117 A 
HETATM   24  F   UNL     1      10.020  -3.082   2.562  1.00  0.00    -0.206 F 
HETATM   25  C   UNL     1      11.164  -2.499   0.571  1.00  0.00     0.042 A 
HETATM   26  C   UNL     1      11.199  -1.787  -0.628  1.00  0.00     0.004 A 
HETATM   27  C   UNL     1      10.125  -0.974  -0.988  1.00  0.00     0.009 A 
ENDBRANCH  20  21
ENDBRANCH  19  20
ENDBRANCH  16  19
ENDBRANCH  10  12
ENDBRANCH   8  10
BRANCH   4  28
HETATM   28  C   UNL     1      -4.034   2.734   0.449  1.00  0.00    -0.057 C 
HETATM   29  C   UNL     1      -5.205   2.537   0.625  1.00  0.00    -0.065 C 
BRANCH  29  30
HETATM   30  C   UNL     1      -6.634   2.296   0.839  1.00  0.00     0.301 C 
HETATM   31  N   UNL     1      -6.866   1.551   2.078  1.00  0.00     0.102 N 
HETATM   32  C   UNL     1      -8.184   0.936   1.924  1.00  0.00     0.303 C 
HETATM   33  H   UNL     1      -6.849   2.172   2.885  1.00  0.00     0.317 HD
HETATM   34  C   UNL     1      -8.177   0.457   0.484  1.00  0.00     0.164 C 
HETATM   35  C   UNL     1      -7.245   1.416  -0.253  1.00  0.00     0.083 C 
BRANCH  34  36
HETATM   36  O   UNL     1      -7.655  -0.876   0.432  1.00  0.00    -0.297 OA
BRANCH  36  37
HETATM   37  C   UNL     1      -8.097  -1.658  -0.601  1.00  0.00     0.363 C 
HETATM   38  O   UNL     1      -8.896  -1.263  -1.448  1.00  0.00    -0.238 OA
HETATM   39  N   UNL     1      -7.541  -2.938  -0.582  1.00  0.00    -0.324 N 
HETATM   40  C   UNL     1      -6.589  -3.408   0.428  1.00  0.00     0.154 C 
HETATM   41  C   UNL     1      -7.787  -3.876  -1.676  1.00  0.00     0.154 C 
HETATM   42  C   UNL     1      -6.962  -4.811   0.888  1.00  0.00     0.187 C 
HETATM   43  O   UNL     1      -7.078  -5.690  -0.235  1.00  0.00    -0.388 OA
HETATM   44  C   UNL     1      -8.111  -5.257  -1.124  1.00  0.00     0.187 C 
ENDBRANCH  36  37
ENDBRANCH  34  36
ENDBRANCH  29  30
ENDBRANCH   4  28
TORSDOF 9
