REMARK  6 active torsions:
REMARK  status: ('A' for Active; 'I' for Inactive)
REMARK    1  A    between atoms: O_2  and  C_23 
REMARK    2  A    between atoms: N_3  and  C_12 
REMARK    3  A    between atoms: N_5  and  C_13 
REMARK    4  A    between atoms: N_5  and  C_16 
REMARK    5  A    between atoms: C_12  and  C_20 
REMARK    6  A    between atoms: C_14  and  C_23 
ROOT
HETATM    1  N   UNL     1       3.020   1.448  -0.515  1.00  0.00    -0.265 N 
HETATM    2  N   UNL     1       3.007   2.454   0.375  1.00  0.00    -0.183 NA
HETATM    3  C   UNL     1       1.804   0.848  -0.701  1.00  0.00     0.065 A 
HETATM    4  C   UNL     1       0.929   1.524   0.142  1.00  0.00     0.014 A 
HETATM    5  C   UNL     1      -0.840   0.080  -0.631  1.00  0.00     0.034 A 
HETATM    6  C   UNL     1      -0.421   1.139   0.184  1.00  0.00     0.044 A 
HETATM    7  C   UNL     1       1.407  -0.210  -1.522  1.00  0.00     0.034 A 
HETATM    8  C   UNL     1       0.059  -0.582  -1.469  1.00  0.00     0.032 A 
HETATM    9  C   UNL     1       1.734   2.497   0.773  1.00  0.00     0.152 A 
ENDROOT
BRANCH   5  10
HETATM   10  N   UNL     1      -2.174  -0.318  -0.604  1.00  0.00    -0.339 N 
HETATM   11  H   UNL     1      -2.320  -1.310  -0.760  1.00  0.00     0.167 HD
BRANCH  10  12
HETATM   12  C   UNL     1      -3.264   0.479  -0.345  1.00  0.00     0.159 A 
HETATM   13  N   UNL     1      -3.233   1.750  -0.661  1.00  0.00    -0.220 NA
HETATM   14  C   UNL     1      -4.335   2.544  -0.397  1.00  0.00     0.258 A 
HETATM   15  N   UNL     1      -5.460   2.184   0.153  1.00  0.00    -0.161 NA
HETATM   16  N   UNL     1      -5.506   0.872   0.486  1.00  0.00    -0.240 N 
HETATM   17  C   UNL     1      -4.476  -0.007   0.271  1.00  0.00     0.112 A 
HETATM   18  C   UNL     1      -6.553   0.212   1.075  1.00  0.00     0.119 A 
HETATM   19  C   UNL     1      -4.868  -1.246   0.729  1.00  0.00    -0.001 A 
HETATM   20  C   UNL     1      -6.183  -1.106   1.238  1.00  0.00     0.031 A 
BRANCH  19  21
HETATM   21  C   UNL     1      -4.097  -2.506   0.713  1.00  0.00     0.208 C 
BRANCH  21  22
HETATM   22  O   UNL     1      -4.061  -3.037  -0.612  1.00  0.00    -0.391 OA
HETATM   23  C   UNL     1      -3.326  -4.250  -0.660  1.00  0.00     0.201 C 
ENDBRANCH  21  22
ENDBRANCH  19  21
ENDBRANCH  10  12
ENDBRANCH   5  10
BRANCH   1  24
HETATM   24  C   UNL     1       4.261   1.105  -1.170  1.00  0.00     0.190 C 
BRANCH  24  25
HETATM   25  C   UNL     1       5.192   0.295  -0.301  1.00  0.00    -0.035 A 
HETATM   26  C   UNL     1       5.301  -1.082  -0.491  1.00  0.00     0.051 A 
HETATM   27  C   UNL     1       6.161  -1.831   0.313  1.00  0.00     0.117 A 
HETATM   28  F   UNL     1       6.266  -3.154   0.131  1.00  0.00    -0.206 F 
HETATM   29  C   UNL     1       6.911  -1.202   1.307  1.00  0.00     0.042 A 
HETATM   30  C   UNL     1       6.801   0.176   1.496  1.00  0.00     0.004 A 
HETATM   31  C   UNL     1       5.942   0.925   0.692  1.00  0.00     0.009 A 
ENDBRANCH  24  25
ENDBRANCH   1  24
TORSDOF 6
