REMARK  5 active torsions:
REMARK  status: ('A' for Active; 'I' for Inactive)
REMARK    1  A    between atoms: O_2  and  C_16 
REMARK    2  A    between atoms: O_2  and  C_19 
REMARK    3  A    between atoms: O_3  and  C_23 
REMARK    4  A    between atoms: N_4  and  C_9 
REMARK    5  A    between atoms: N_4  and  C_11 
ROOT
HETATM    1 CL   UNL     1      -1.889   3.387   1.628  1.00  0.00    -0.081 Cl
HETATM    2  C   UNL     1       0.988   1.199  -0.074  1.00  0.00     0.035 A 
HETATM    3  C   UNL     1       0.302   2.081   0.760  1.00  0.00     0.056 A 
HETATM    4  C   UNL     1       0.306   0.526  -1.089  1.00  0.00     0.032 A 
HETATM    5  C   UNL     1      -1.746   1.619  -0.434  1.00  0.00     0.098 A 
HETATM    6  C   UNL     1      -1.065   2.292   0.580  1.00  0.00     0.070 A 
HETATM    7  C   UNL     1      -1.061   0.737  -1.269  1.00  0.00     0.041 A 
ENDROOT
BRANCH   2   8
HETATM    8  N   UNL     1       2.372   0.986   0.107  1.00  0.00    -0.339 N 
HETATM    9  H   UNL     1       2.828   1.744   0.607  1.00  0.00     0.167 HD
BRANCH   8  10
HETATM   10  C   UNL     1       3.207  -0.120  -0.128  1.00  0.00     0.158 A 
HETATM   11  N   UNL     1       2.701  -1.268  -0.628  1.00  0.00    -0.222 NA
HETATM   12  C   UNL     1       3.562  -2.291  -0.829  1.00  0.00     0.236 A 
HETATM   13  N   UNL     1       4.889  -2.333  -0.597  1.00  0.00    -0.240 NA
HETATM   14  C   UNL     1       5.372  -1.170  -0.096  1.00  0.00     0.090 A 
HETATM   15  C   UNL     1       4.562  -0.063   0.144  1.00  0.00     0.107 A 
HETATM   16  C   UNL     1       6.694  -0.821   0.273  1.00  0.00     0.051 A 
HETATM   17  N   UNL     1       5.366   0.929   0.643  1.00  0.00    -0.361 N 
HETATM   18  C   UNL     1       6.660   0.480   0.726  1.00  0.00     0.091 A 
HETATM   19  H   UNL     1       5.056   1.853   0.911  1.00  0.00     0.165 HD
ENDBRANCH   8  10
ENDBRANCH   2   8
BRANCH   5  20
HETATM   20  O   UNL     1      -3.083   1.804  -0.633  1.00  0.00    -0.309 OA
BRANCH  20  21
HETATM   21  C   UNL     1      -3.907   0.698  -0.524  1.00  0.00     0.078 A 
HETATM   22  C   UNL     1      -3.745  -0.191   0.538  1.00  0.00     0.074 A 
HETATM   23  C   UNL     1      -4.576  -1.307   0.646  1.00  0.00     0.070 A 
HETATM   24  C   UNL     1      -5.567  -1.533  -0.308  1.00  0.00     0.037 A 
HETATM   25  C   UNL     1      -5.729  -0.644  -1.371  1.00  0.00     0.005 A 
HETATM   26  C   UNL     1      -4.898   0.471  -1.479  1.00  0.00     0.037 A 
BRANCH  23  27
HETATM   27  O   UNL     1      -4.417  -2.175   1.682  1.00  0.00    -0.356 OA
HETATM   28  C   UNL     1      -5.300  -3.295   1.731  1.00  0.00     0.210 C 
ENDBRANCH  23  27
ENDBRANCH  20  21
ENDBRANCH   5  20
TORSDOF 5
