REMARK  7 active torsions:
REMARK  status: ('A' for Active; 'I' for Inactive)
REMARK    1  A    between atoms: N_2  and  C_14 
REMARK    2  A    between atoms: N_3  and  C_10 
REMARK    3  A    between atoms: N_5  and  C_19 
REMARK    4  A    between atoms: N_5  and  C_20 
REMARK    5  A    between atoms: N_8  and  C_27 
REMARK    6  A    between atoms: C_14  and  C_15 
REMARK    7  A    between atoms: C_27  and  C_29 
ROOT
HETATM    1  N   UNL     1      -1.679  -0.414   0.401  1.00  0.00    -0.339 N 
HETATM    2  H   UNL     1      -1.969   0.556   0.359  1.00  0.00     0.167 HD
ENDROOT
BRANCH   1   3
HETATM    3  C   UNL     1      -2.635  -1.396   0.297  1.00  0.00     0.159 A 
HETATM    4  N   UNL     1      -2.444  -2.557   0.873  1.00  0.00    -0.220 NA
HETATM    5  C   UNL     1      -3.412  -3.539   0.763  1.00  0.00     0.258 A 
HETATM    6  N   UNL     1      -4.550  -3.466   0.131  1.00  0.00    -0.161 NA
HETATM    7  N   UNL     1      -4.760  -2.270  -0.470  1.00  0.00    -0.240 N 
HETATM    8  C   UNL     1      -3.872  -1.227  -0.427  1.00  0.00     0.112 A 
HETATM    9  C   UNL     1      -5.860  -1.904  -1.201  1.00  0.00     0.119 A 
HETATM   10  C   UNL     1      -4.410  -0.178  -1.141  1.00  0.00     0.004 A 
HETATM   11  C   UNL     1      -5.668  -0.608  -1.631  1.00  0.00     0.030 A 
BRANCH  10  12
HETATM   12  C   UNL     1      -3.810   1.182  -1.380  1.00  0.00     0.313 C 
BRANCH  12  13
HETATM   13  N   UNL     1      -3.914   2.035  -0.206  1.00  0.00     0.094 N 
HETATM   14  C   UNL     1      -2.967   3.151  -0.233  1.00  0.00     0.307 C 
HETATM   15  C   UNL     1      -3.496   4.002   0.911  1.00  0.00     0.247 C 
HETATM   16  C   UNL     1      -5.011   3.919   0.741  1.00  0.00     0.067 C 
HETATM   17  C   UNL     1      -5.243   2.638  -0.062  1.00  0.00     0.275 C 
BRANCH  15  18
HETATM   18  N   UNL     1      -2.997   5.366   0.881  1.00  0.00     0.084 N 
HETATM   19  H   UNL     1      -1.985   5.364   1.000  1.00  0.00     0.313 HD
HETATM   20  H   UNL     1      -3.381   5.891   1.665  1.00  0.00     0.313 HD
ENDBRANCH  15  18
ENDBRANCH  12  13
ENDBRANCH  10  12
ENDBRANCH   1   3
BRANCH   1  21
HETATM   21  C   UNL     1      -0.305  -0.601   0.533  1.00  0.00     0.034 A 
HETATM   22  C   UNL     1       0.293  -1.732  -0.035  1.00  0.00     0.044 A 
HETATM   23  C   UNL     1       1.681  -1.901   0.109  1.00  0.00     0.014 A 
HETATM   24  C   UNL     1       2.414  -0.948   0.806  1.00  0.00     0.065 A 
HETATM   25  C   UNL     1       2.640  -2.857  -0.291  1.00  0.00     0.152 A 
HETATM   26  N   UNL     1       3.708  -1.392   0.770  1.00  0.00    -0.265 N 
HETATM   27  C   UNL     1       1.837   0.187   1.380  1.00  0.00     0.034 A 
HETATM   28  N   UNL     1       3.875  -2.550   0.110  1.00  0.00    -0.183 NA
HETATM   29  C   UNL     1       0.455   0.341   1.228  1.00  0.00     0.032 A 
BRANCH  26  30
HETATM   30  C   UNL     1       4.859  -0.746   1.359  1.00  0.00     0.190 C 
BRANCH  30  31
HETATM   31  C   UNL     1       5.708  -0.006   0.355  1.00  0.00    -0.035 A 
HETATM   32  C   UNL     1       5.618   1.382   0.253  1.00  0.00     0.051 A 
HETATM   33  C   UNL     1       6.402   2.066  -0.675  1.00  0.00     0.117 A 
HETATM   34  F   UNL     1       6.316   3.399  -0.773  1.00  0.00    -0.206 F 
HETATM   35  C   UNL     1       7.277   1.362  -1.503  1.00  0.00     0.042 A 
HETATM   36  C   UNL     1       7.367  -0.026  -1.401  1.00  0.00     0.004 A 
HETATM   37  C   UNL     1       6.583  -0.711  -0.472  1.00  0.00     0.009 A 
ENDBRANCH  30  31
ENDBRANCH  26  30
ENDBRANCH   1  21
TORSDOF 7
