REMARK  8 active torsions:
REMARK  status: ('A' for Active; 'I' for Inactive)
REMARK    1  A    between atoms: O_3  and  C_15 
REMARK    2  A    between atoms: O_4  and  C_20 
REMARK    3  A    between atoms: O_4  and  C_26 
REMARK    4  A    between atoms: N_6  and  C_13 
REMARK    5  A    between atoms: N_6  and  C_17 
REMARK    6  A    between atoms: N_7  and  C_12 
REMARK       I    between atoms: N_7  and  C_21 
REMARK    7  A    between atoms: C_21  and  C_25 
REMARK    8  A    between atoms: C_26  and  C_27 
ROOT
HETATM    1  N   UNL     1      -3.775   3.505  -0.105  1.00  0.00    -0.241 NA
HETATM    2  N   UNL     1      -1.613   2.857   0.741  1.00  0.00    -0.224 NA
HETATM    3  C   UNL     1      -3.289   1.184   0.257  1.00  0.00     0.041 A 
HETATM    4  C   UNL     1      -4.154   2.216  -0.143  1.00  0.00     0.075 A 
HETATM    5  C   UNL     1      -4.975  -0.485  -0.232  1.00  0.00     0.069 A 
HETATM    6  C   UNL     1      -2.026   1.577   0.690  1.00  0.00     0.142 A 
HETATM    7  C   UNL     1      -3.697  -0.160   0.213  1.00  0.00     0.050 A 
HETATM    8  C   UNL     1      -5.841   0.527  -0.630  1.00  0.00     0.097 A 
HETATM    9  C   UNL     1      -5.428   1.862  -0.583  1.00  0.00     0.071 A 
HETATM   10  C   UNL     1      -2.525   3.756   0.335  1.00  0.00     0.236 A 
ENDROOT
BRANCH   6  11
HETATM   11  N   UNL     1      -1.097   0.592   1.109  1.00  0.00    -0.340 N 
HETATM   12  H   UNL     1      -1.509  -0.097   1.732  1.00  0.00     0.167 HD
BRANCH  11  13
HETATM   13  C   UNL     1       0.305   0.537   1.076  1.00  0.00     0.035 A 
HETATM   14  C   UNL     1       1.007   1.204   0.071  1.00  0.00     0.056 A 
HETATM   15  C   UNL     1       2.400   1.150   0.039  1.00  0.00     0.069 A 
HETATM   16 CL   UNL     1       3.242   1.982  -1.216  1.00  0.00    -0.081 Cl
HETATM   17  C   UNL     1       3.092   0.429   1.012  1.00  0.00     0.091 A 
HETATM   18  C   UNL     1       2.391  -0.238   2.017  1.00  0.00     0.041 A 
HETATM   19  C   UNL     1       0.998  -0.184   2.049  1.00  0.00     0.032 A 
BRANCH  17  20
HETATM   20  O   UNL     1       4.454   0.361   1.007  1.00  0.00    -0.345 OA
BRANCH  20  21
HETATM   21  C   UNL     1       5.036  -0.936   0.894  1.00  0.00     0.214 C 
BRANCH  21  22
HETATM   22  C   UNL     1       6.372  -0.816   0.221  1.00  0.00    -0.031 A 
HETATM   23  C   UNL     1       6.443  -0.593  -1.154  1.00  0.00     0.051 A 
HETATM   24  C   UNL     1       7.685  -0.482  -1.779  1.00  0.00     0.117 A 
HETATM   25  F   UNL     1       7.753  -0.269  -3.100  1.00  0.00    -0.206 F 
HETATM   26  C   UNL     1       8.856  -0.595  -1.029  1.00  0.00     0.042 A 
HETATM   27  C   UNL     1       8.785  -0.819   0.346  1.00  0.00     0.004 A 
HETATM   28  C   UNL     1       7.543  -0.929   0.971  1.00  0.00     0.009 A 
ENDBRANCH  21  22
ENDBRANCH  20  21
ENDBRANCH  17  20
ENDBRANCH  11  13
ENDBRANCH   6  11
BRANCH   5  29
HETATM   29  N   UNL     1      -5.371  -1.824  -0.273  1.00  0.00    -0.325 N 
HETATM   30  C   UNL     1      -4.630  -2.959   0.089  1.00  0.00     0.221 C 
HETATM   31  O   UNL     1      -3.480  -2.982   0.514  1.00  0.00    -0.273 OA
HETATM   32  H   UNL     1      -6.321  -1.983  -0.604  1.00  0.00     0.169 HD
BRANCH  30  33
HETATM   33  C   UNL     1      -5.442  -4.231  -0.110  1.00  0.00     0.098 C 
HETATM   34  C   UNL     1      -4.662  -5.486   0.238  1.00  0.00     0.014 C 
ENDBRANCH  30  33
ENDBRANCH   5  29
BRANCH   8  35
HETATM   35  O   UNL     1      -7.099   0.240  -1.069  1.00  0.00    -0.354 OA
HETATM   36  C   UNL     1      -7.259   0.010  -2.467  1.00  0.00     0.210 C 
ENDBRANCH   8  35
TORSDOF 8
