REMARK  9 active torsions:
REMARK  status: ('A' for Active; 'I' for Inactive)
REMARK    1  A    between atoms: O_2  and  C_15 
REMARK    2  A    between atoms: N_3  and  N_4 
REMARK    3  A    between atoms: N_5  and  C_23 
REMARK    4  A    between atoms: N_6  and  C_20 
REMARK    5  A    between atoms: N_6  and  C_22 
REMARK    6  A    between atoms: N_10  and  C_24 
REMARK    7  A    between atoms: C_11  and  C_15 
REMARK    8  A    between atoms: C_16  and  C_18 
REMARK    9  A    between atoms: C_23  and  C_29 
ROOT
HETATM    1  N   UNL     1      -1.441  -3.137  -0.889  1.00  0.00    -0.223 NA
HETATM    2  N   UNL     1      -3.482  -4.417  -0.929  1.00  0.00    -0.224 NA
HETATM    3  C   UNL     1      -3.558  -2.041  -0.551  1.00  0.00     0.074 A 
HETATM    4  C   UNL     1      -2.182  -2.033  -0.658  1.00  0.00     0.145 A 
HETATM    5  C   UNL     1      -4.160  -3.274  -0.697  1.00  0.00     0.138 A 
HETATM    6  C   UNL     1      -2.145  -4.278  -1.013  1.00  0.00     0.237 A 
ENDROOT
BRANCH   4   7
HETATM    7  N   UNL     1      -1.500  -0.798  -0.517  1.00  0.00    -0.340 N 
HETATM    8  H   UNL     1      -1.961  -0.035  -1.005  1.00  0.00     0.167 HD
BRANCH   7   9
HETATM    9  C   UNL     1      -0.221  -0.471  -0.041  1.00  0.00     0.034 A 
HETATM   10  C   UNL     1       0.374  -1.273   0.941  1.00  0.00     0.044 A 
HETATM   11  C   UNL     1       1.655  -0.929   1.403  1.00  0.00     0.014 A 
HETATM   12  C   UNL     1       2.292   0.188   0.876  1.00  0.00     0.065 A 
HETATM   13  C   UNL     1       2.573  -1.445   2.343  1.00  0.00     0.152 A 
HETATM   14  N   UNL     1       3.499   0.252   1.519  1.00  0.00    -0.265 N 
HETATM   15  C   UNL     1       1.717   1.001  -0.104  1.00  0.00     0.034 A 
HETATM   16  N   UNL     1       3.697  -0.728   2.416  1.00  0.00    -0.183 NA
HETATM   17  C   UNL     1       0.441   0.646  -0.554  1.00  0.00     0.032 A 
BRANCH  14  18
HETATM   18  C   UNL     1       4.530   1.244   1.321  1.00  0.00     0.190 C 
BRANCH  18  19
HETATM   19  C   UNL     1       5.677   0.753   0.473  1.00  0.00    -0.035 A 
HETATM   20  C   UNL     1       5.766   1.133  -0.867  1.00  0.00     0.051 A 
HETATM   21  C   UNL     1       6.826   0.678  -1.651  1.00  0.00     0.117 A 
HETATM   22  F   UNL     1       6.912   1.042  -2.937  1.00  0.00    -0.206 F 
HETATM   23  C   UNL     1       7.797  -0.157  -1.096  1.00  0.00     0.042 A 
HETATM   24  C   UNL     1       7.707  -0.536   0.243  1.00  0.00     0.004 A 
HETATM   25  C   UNL     1       6.647  -0.082   1.027  1.00  0.00     0.009 A 
ENDBRANCH  18  19
ENDBRANCH  14  18
ENDBRANCH   7   9
ENDBRANCH   4   7
BRANCH   3  26
HETATM   26  C   UNL     1      -4.333  -0.813  -0.297  1.00  0.00     0.151 C 
HETATM   27  N   UNL     1      -3.846   0.177   0.379  1.00  0.00    -0.210 NA
BRANCH  27  28
HETATM   28  N   UNL     1      -4.708   1.202   0.495  1.00  0.00    -0.202 NA
HETATM   29  C   UNL     1      -4.177   2.561   0.356  1.00  0.00     0.105 C 
HETATM   30  C   UNL     1      -5.394   3.412   0.693  1.00  0.00     0.025 C 
HETATM   31  C   UNL     1      -6.071   2.645   1.817  1.00  0.00     0.018 C 
HETATM   32  C   UNL     1      -5.610   1.201   1.649  1.00  0.00     0.116 C 
BRANCH  29  33
HETATM   33  C   UNL     1      -3.646   2.850  -1.041  1.00  0.00     0.188 C 
BRANCH  33  34
HETATM   34  O   UNL     1      -3.286   4.219  -1.115  1.00  0.00    -0.394 OA
HETATM   35  C   UNL     1      -2.780   4.561  -2.399  1.00  0.00     0.201 C 
ENDBRANCH  33  34
ENDBRANCH  29  33
ENDBRANCH  27  28
ENDBRANCH   3  26
BRANCH   5  36
HETATM   36  N   UNL     1      -5.572  -3.352  -0.598  1.00  0.00    -0.383 N 
HETATM   37  H   UNL     1      -6.043  -2.734   0.051  1.00  0.00     0.157 HD
HETATM   38  H   UNL     1      -5.976  -4.272  -0.729  1.00  0.00     0.157 HD
ENDBRANCH   5  36
TORSDOF 9
