REMARK  8 active torsions:
REMARK  status: ('A' for Active; 'I' for Inactive)
REMARK    1  A    between atoms: O_4  and  C_29 
REMARK    2  A    between atoms: O_4  and  C_32 
REMARK    3  A    between atoms: N_5  and  C_15 
REMARK       I    between atoms: N_7  and  C_17 
REMARK    4  A    between atoms: N_7  and  C_18 
REMARK    5  A    between atoms: N_8  and  C_24 
REMARK    6  A    between atoms: N_8  and  C_25 
REMARK    7  A    between atoms: C_15  and  C_17 
REMARK    8  A    between atoms: C_32  and  C_33 
ROOT
HETATM    1  N   UNL     1       0.940  -4.446   0.636  1.00  0.00    -0.241 NA
HETATM    2  N   UNL     1      -0.944  -3.132  -0.093  1.00  0.00    -0.224 NA
HETATM    3  C   UNL     1       3.551  -1.365  -0.396  1.00  0.00     0.035 A 
HETATM    4  C   UNL     1       2.183  -1.208  -0.593  1.00  0.00     0.047 A 
HETATM    5  C   UNL     1       1.300  -2.245  -0.247  1.00  0.00     0.041 A 
HETATM    6  C   UNL     1       4.035  -2.551   0.144  1.00  0.00     0.032 A 
HETATM    7  C   UNL     1       1.776  -3.448   0.300  1.00  0.00     0.072 A 
HETATM    8  C   UNL     1       3.150  -3.578   0.487  1.00  0.00     0.035 A 
HETATM    9  C   UNL     1      -0.079  -2.153  -0.418  1.00  0.00     0.142 A 
HETATM   10  C   UNL     1      -0.374  -4.234   0.421  1.00  0.00     0.236 A 
ENDROOT
BRANCH   9  11
HETATM   11  N   UNL     1      -0.634  -0.969  -0.964  1.00  0.00    -0.340 N 
HETATM   12  H   UNL     1      -0.126  -0.635  -1.779  1.00  0.00     0.167 HD
BRANCH  11  13
HETATM   13  C   UNL     1      -1.873  -0.333  -0.784  1.00  0.00     0.035 A 
HETATM   14  C   UNL     1      -2.547  -0.449   0.431  1.00  0.00     0.056 A 
HETATM   15  C   UNL     1      -3.777   0.183   0.609  1.00  0.00     0.069 A 
HETATM   16 CL   UNL     1      -4.589   0.024   2.123  1.00  0.00    -0.081 Cl
HETATM   17  C   UNL     1      -4.334   0.931  -0.428  1.00  0.00     0.091 A 
HETATM   18  C   UNL     1      -3.660   1.046  -1.644  1.00  0.00     0.041 A 
HETATM   19  C   UNL     1      -2.429   0.414  -1.822  1.00  0.00     0.032 A 
BRANCH  17  20
HETATM   20  O   UNL     1      -5.535   1.559  -0.282  1.00  0.00    -0.345 OA
BRANCH  20  21
HETATM   21  C   UNL     1      -6.577   1.179  -1.179  1.00  0.00     0.214 C 
BRANCH  21  22
HETATM   22  C   UNL     1      -7.901   1.376  -0.501  1.00  0.00    -0.031 A 
HETATM   23  C   UNL     1      -8.324   0.475   0.477  1.00  0.00     0.051 A 
HETATM   24  C   UNL     1      -9.555   0.656   1.107  1.00  0.00     0.117 A 
HETATM   25  F   UNL     1      -9.961  -0.209   2.045  1.00  0.00    -0.206 F 
HETATM   26  C   UNL     1     -10.363   1.739   0.760  1.00  0.00     0.042 A 
HETATM   27  C   UNL     1      -9.941   2.640  -0.218  1.00  0.00     0.004 A 
HETATM   28  C   UNL     1      -8.710   2.458  -0.848  1.00  0.00     0.009 A 
ENDBRANCH  21  22
ENDBRANCH  20  21
ENDBRANCH  17  20
ENDBRANCH  11  13
ENDBRANCH   9  11
BRANCH   3  29
HETATM   29  N   UNL     1       4.446  -0.325  -0.743  1.00  0.00    -0.326 N 
HETATM   30  C   UNL     1       5.833  -0.318  -0.615  1.00  0.00     0.250 C 
HETATM   31  O   UNL     1       6.542  -1.224  -0.187  1.00  0.00    -0.271 OA
HETATM   32  H   UNL     1       4.003   0.504  -1.135  1.00  0.00     0.169 HD
BRANCH  30  33
HETATM   33  C   UNL     1       6.402   1.000  -1.109  1.00  0.00     0.375 C 
BRANCH  33  34
HETATM   34  N   UNL     1       7.636   1.297  -0.384  1.00  0.00     0.100 N 
HETATM   35  C   UNL     1       8.453   2.269  -1.121  1.00  0.00     0.303 C 
HETATM   36  C   UNL     1       9.746   2.583  -0.360  1.00  0.00     0.302 C 
HETATM   37  N   UNL     1       9.451   3.080   0.990  1.00  0.00     0.087 N 
HETATM   38  C   UNL     1       8.634   2.108   1.726  1.00  0.00     0.302 C 
HETATM   39  C   UNL     1      10.685   3.376   1.714  1.00  0.00     0.310 C 
HETATM   40  C   UNL     1       7.341   1.794   0.966  1.00  0.00     0.303 C 
ENDBRANCH  33  34
ENDBRANCH  30  33
ENDBRANCH   3  29
TORSDOF 8
