REMARK  5 active torsions:
REMARK  status: ('A' for Active; 'I' for Inactive)
REMARK    1  A    between atoms: O_3  and  N_8 
REMARK       I    between atoms: N_7  and  C_18 
REMARK       I    between atoms: N_8  and  C_17 
REMARK    2  A    between atoms: N_9  and  C_30 
REMARK    3  A    between atoms: C_15  and  C_17 
REMARK    4  A    between atoms: C_16  and  C_18 
REMARK    5  A    between atoms: C_23  and  C_24 
ROOT
HETATM    1  O   UNL     1      -2.526   0.975   1.855  1.00  0.00    -0.271 OA
HETATM    2  N   UNL     1      -0.794   0.752   0.318  1.00  0.00    -0.347 N 
HETATM    3  C   UNL     1      -2.095   0.546   0.782  1.00  0.00     0.254 C 
HETATM    4  C   UNL     1       0.094   1.661   1.042  1.00  0.00     0.130 C 
HETATM    5  C   UNL     1      -0.287   0.239  -0.962  1.00  0.00     0.153 C 
HETATM    6  C   UNL     1       1.441   0.998   1.316  1.00  0.00     0.059 C 
HETATM    7  C   UNL     1       1.200   0.028  -0.950  1.00  0.00     0.001 C 
HETATM    8  C   UNL     1       2.010   0.356   0.075  1.00  0.00    -0.048 C 
ENDROOT
BRANCH   3   9
HETATM    9  C   UNL     1      -2.999  -0.257  -0.105  1.00  0.00     0.324 C 
HETATM   10  N   UNL     1      -2.761  -1.656   0.268  1.00  0.00     0.098 N 
HETATM   11  C   UNL     1      -3.601  -2.566  -0.517  1.00  0.00     0.280 C 
HETATM   12  H   UNL     1      -2.973  -1.788   1.257  1.00  0.00     0.317 HD
HETATM   13  C   UNL     1      -5.059  -2.238  -0.308  1.00  0.00    -0.013 A 
HETATM   14  C   UNL     1      -6.080  -3.307  -0.617  1.00  0.00     0.012 A 
HETATM   15  C   UNL     1      -5.806  -2.930   0.811  1.00  0.00     0.012 A 
HETATM   16  C   UNL     1      -5.410  -0.807  -0.635  1.00  0.00     0.028 C 
HETATM   17  C   UNL     1      -4.466   0.149   0.104  1.00  0.00     0.123 C 
BRANCH  17  18
HETATM   18  C   UNL     1      -4.703   1.535  -0.421  1.00  0.00     0.247 C 
HETATM   19  O   UNL     1      -4.518   1.812  -1.604  1.00  0.00    -0.271 OA
HETATM   20  N   UNL     1      -5.144   2.405   0.541  1.00  0.00    -0.237 N 
HETATM   21  H   UNL     1      -5.383   2.179   1.500  1.00  0.00     0.197 HD
BRANCH  20  22
HETATM   22  O   UNL     1      -5.396   3.714   0.109  1.00  0.00    -0.287 OA
HETATM   23  H   UNL     1      -6.181   3.926   0.642  1.00  0.00     0.244 HD
ENDBRANCH  20  22
ENDBRANCH  17  18
ENDBRANCH   3   9
BRANCH   8  24
HETATM   24  C   UNL     1       3.467   0.085   0.034  1.00  0.00    -0.024 A 
HETATM   25  C   UNL     1       4.370   1.023  -0.475  1.00  0.00    -0.049 A 
HETATM   26  C   UNL     1       5.736   0.740  -0.501  1.00  0.00     0.043 A 
HETATM   27  C   UNL     1       3.904   2.342  -1.002  1.00  0.00     0.049 C 
HETATM   28  C   UNL     1       6.204  -0.482  -0.017  1.00  0.00     0.103 A 
HETATM   29  C   UNL     1       5.306  -1.421   0.492  1.00  0.00     0.037 A 
HETATM   30  C   UNL     1       3.941  -1.137   0.517  1.00  0.00     0.015 A 
BRANCH  28  31
HETATM   31  N   UNL     1       7.594  -0.771  -0.043  1.00  0.00    -0.116 N 
HETATM   32  O   UNL     1       7.994  -1.876   0.397  1.00  0.00    -0.532 OA
HETATM   33  O   UNL     1       8.385   0.087  -0.505  1.00  0.00    -0.532 OA
ENDBRANCH  28  31
ENDBRANCH   8  24
TORSDOF 5
