REMARK  10 active torsions:
REMARK  status: ('A' for Active; 'I' for Inactive)
REMARK    1  A    between atoms: O_4  and  C_15 
REMARK    2  A    between atoms: O_5  and  C_28 
REMARK    3  A    between atoms: O_5  and  C_31 
REMARK    4  A    between atoms: N_6  and  C_14 
REMARK    5  A    between atoms: N_7  and  C_23 
REMARK    6  A    between atoms: N_7  and  C_24 
REMARK    7  A    between atoms: C_10  and  C_16 
REMARK    8  A    between atoms: C_14  and  C_15 
REMARK    9  A    between atoms: C_17  and  C_18 
REMARK   10  A    between atoms: C_31  and  C_32 
ROOT
HETATM    1  S   UNL     1       2.508   0.457  -0.540  1.00  0.00    -0.075 SA
HETATM    2  N   UNL     1       1.487  -3.210  -1.312  1.00  0.00    -0.241 NA
HETATM    3  N   UNL     1      -0.581  -2.100  -0.722  1.00  0.00    -0.223 NA
HETATM    4  C   UNL     1       3.864  -0.486  -0.981  1.00  0.00     0.061 A 
HETATM    5  C   UNL     1       3.521  -1.790  -1.259  1.00  0.00     0.061 A 
HETATM    6  C   UNL     1       1.440  -0.875  -0.716  1.00  0.00     0.081 A 
HETATM    7  C   UNL     1       2.122  -2.025  -1.108  1.00  0.00     0.081 A 
HETATM    8  C   UNL     1       0.064  -0.933  -0.524  1.00  0.00     0.149 A 
HETATM    9  C   UNL     1       0.162  -3.157  -1.099  1.00  0.00     0.236 A 
ENDROOT
BRANCH   8  10
HETATM   10  N   UNL     1      -0.666   0.203  -0.129  1.00  0.00    -0.340 N 
HETATM   11  H   UNL     1      -0.115   1.058  -0.137  1.00  0.00     0.167 HD
BRANCH  10  12
HETATM   12  C   UNL     1      -2.035   0.419   0.131  1.00  0.00     0.035 A 
HETATM   13  C   UNL     1      -2.826  -0.623   0.617  1.00  0.00     0.056 A 
HETATM   14  C   UNL     1      -4.180  -0.409   0.873  1.00  0.00     0.069 A 
HETATM   15 CL   UNL     1      -5.136  -1.715   1.470  1.00  0.00    -0.081 Cl
HETATM   16  C   UNL     1      -4.744   0.847   0.644  1.00  0.00     0.091 A 
HETATM   17  C   UNL     1      -3.953   1.888   0.159  1.00  0.00     0.041 A 
HETATM   18  C   UNL     1      -2.599   1.674  -0.098  1.00  0.00     0.032 A 
BRANCH  16  19
HETATM   19  O   UNL     1      -6.064   1.085   0.888  1.00  0.00    -0.345 OA
BRANCH  19  20
HETATM   20  C   UNL     1      -6.861   1.503  -0.218  1.00  0.00     0.214 C 
BRANCH  20  21
HETATM   21  C   UNL     1      -8.276   1.055   0.000  1.00  0.00    -0.031 A 
HETATM   22  C   UNL     1      -8.618  -0.286  -0.177  1.00  0.00     0.051 A 
HETATM   23  C   UNL     1      -9.933  -0.703   0.025  1.00  0.00     0.117 A 
HETATM   24  F   UNL     1     -10.262  -1.991  -0.146  1.00  0.00    -0.206 F 
HETATM   25  C   UNL     1     -10.907   0.221   0.405  1.00  0.00     0.042 A 
HETATM   26  C   UNL     1     -10.566   1.561   0.582  1.00  0.00     0.004 A 
HETATM   27  C   UNL     1      -9.250   1.978   0.380  1.00  0.00     0.009 A 
ENDBRANCH  20  21
ENDBRANCH  19  20
ENDBRANCH  16  19
ENDBRANCH  10  12
ENDBRANCH   8  10
BRANCH   4  28
HETATM   28  C   UNL     1       5.192   0.041  -1.048  1.00  0.00    -0.057 C 
HETATM   29  C   UNL     1       6.307   0.484  -1.104  1.00  0.00    -0.065 C 
BRANCH  29  30
HETATM   30  C   UNL     1       7.670   1.026  -1.173  1.00  0.00     0.301 C 
HETATM   31  N   UNL     1       8.304   1.045   0.155  1.00  0.00     0.106 N 
HETATM   32  C   UNL     1       9.228   2.180   0.154  1.00  0.00     0.274 C 
HETATM   33  C   UNL     1       8.403   3.252  -0.527  1.00  0.00     0.033 C 
HETATM   34  C   UNL     1       7.663   2.494  -1.621  1.00  0.00     0.050 C 
BRANCH  31  35
HETATM   35  C   UNL     1       8.975  -0.205   0.488  1.00  0.00     0.300 C 
BRANCH  35  36
HETATM   36  C   UNL     1       9.566  -0.141   1.887  1.00  0.00     0.197 C 
BRANCH  36  37
HETATM   37  O   UNL     1      10.194  -1.383   2.176  1.00  0.00    -0.394 OA
HETATM   38  C   UNL     1      10.787  -1.380   3.467  1.00  0.00     0.201 C 
ENDBRANCH  36  37
ENDBRANCH  35  36
ENDBRANCH  31  35
ENDBRANCH  29  30
ENDBRANCH   4  28
TORSDOF 10
