REMARK  11 active torsions:
REMARK  status: ('A' for Active; 'I' for Inactive)
REMARK    1  A    between atoms: S_2  and  C_12 
REMARK    2  A    between atoms: S_2  and  C_15 
REMARK    3  A    between atoms: O_4  and  C_13 
REMARK    4  A    between atoms: O_4  and  C_18 
REMARK    5  A    between atoms: O_8  and  C_36 
REMARK    6  A    between atoms: O_8  and  C_39 
REMARK    7  A    between atoms: N_9  and  C_22 
REMARK    8  A    between atoms: N_9  and  C_29 
REMARK    9  A    between atoms: C_12  and  C_13 
REMARK   10  A    between atoms: C_18  and  C_19 
REMARK   11  A    between atoms: C_39  and  C_40 
ROOT
HETATM    1  O   UNL     1      -4.762   1.595   0.204  1.00  0.00    -0.312 OA
HETATM    2  N   UNL     1      -4.482  -4.644  -0.721  1.00  0.00    -0.241 NA
HETATM    3  N   UNL     1      -2.295  -4.244   0.210  1.00  0.00    -0.224 NA
HETATM    4  C   UNL     1      -5.409  -0.592  -0.413  1.00  0.00    -0.001 A 
HETATM    5  C   UNL     1      -3.847  -2.417  -0.099  1.00  0.00     0.040 A 
HETATM    6  C   UNL     1      -5.739   0.809  -0.313  1.00  0.00     0.086 A 
HETATM    7  C   UNL     1      -5.256   2.860   0.218  1.00  0.00     0.077 A 
HETATM    8  C   UNL     1      -4.163  -1.051   0.003  1.00  0.00     0.032 A 
HETATM    9  C   UNL     1      -4.774  -3.336  -0.618  1.00  0.00     0.072 A 
HETATM   10  C   UNL     1      -2.620  -2.941   0.298  1.00  0.00     0.142 A 
HETATM   11  C   UNL     1      -6.335  -1.492  -0.928  1.00  0.00     0.016 A 
HETATM   12  C   UNL     1      -6.848   1.548  -0.630  1.00  0.00     0.040 A 
HETATM   13  C   UNL     1      -6.536   2.885  -0.286  1.00  0.00     0.038 A 
HETATM   14  C   UNL     1      -6.013  -2.849  -1.027  1.00  0.00     0.033 A 
HETATM   15  C   UNL     1      -3.259  -5.027  -0.301  1.00  0.00     0.236 A 
ENDROOT
BRANCH   7  16
HETATM   16  C   UNL     1      -4.363   3.902   0.744  1.00  0.00     0.232 C 
BRANCH  16  17
HETATM   17  O   UNL     1      -3.048   3.743   0.206  1.00  0.00    -0.384 OA
BRANCH  17  18
HETATM   18  C   UNL     1      -2.167   4.739   0.701  1.00  0.00     0.183 C 
BRANCH  18  19
HETATM   19  C   UNL     1      -0.783   4.565   0.106  1.00  0.00     0.172 C 
BRANCH  19  20
HETATM   20  S   UNL     1      -0.085   2.998   0.523  1.00  0.00     0.177 S 
HETATM   21  O   UNL     1      -0.866   1.954  -0.117  1.00  0.00    -0.223 OA
HETATM   22  O   UNL     1       0.128   2.976   1.960  1.00  0.00    -0.223 OA
BRANCH  20  23
HETATM   23  C   UNL     1       1.499   3.013  -0.262  1.00  0.00     0.059 A 
HETATM   24  C   UNL     1       1.616   2.537  -1.556  1.00  0.00     0.023 A 
HETATM   25  C   UNL     1       2.866   2.549  -2.176  1.00  0.00     0.002 A 
HETATM   26  C   UNL     1       3.979   3.038  -1.492  1.00  0.00     0.000 A 
HETATM   27  C   UNL     1       3.842   3.515  -0.188  1.00  0.00     0.002 A 
HETATM   28  C   UNL     1       2.593   3.502   0.432  1.00  0.00     0.023 A 
ENDBRANCH  20  23
ENDBRANCH  19  20
ENDBRANCH  18  19
ENDBRANCH  17  18
ENDBRANCH  16  17
ENDBRANCH   7  16
BRANCH  10  29
HETATM   29  N   UNL     1      -1.634  -2.074   0.833  1.00  0.00    -0.340 N 
HETATM   30  H   UNL     1      -2.008  -1.334   1.419  1.00  0.00     0.167 HD
BRANCH  29  31
HETATM   31  C   UNL     1      -0.231  -2.112   0.816  1.00  0.00     0.035 A 
HETATM   32  C   UNL     1       0.508  -1.100   1.437  1.00  0.00     0.056 A 
HETATM   33  C   UNL     1       1.903  -1.139   1.420  1.00  0.00     0.069 A 
HETATM   34 CL   UNL     1       2.784   0.125   2.196  1.00  0.00    -0.081 Cl
HETATM   35  C   UNL     1       2.564  -2.189   0.783  1.00  0.00     0.091 A 
HETATM   36  C   UNL     1       1.831  -3.200   0.163  1.00  0.00     0.041 A 
HETATM   37  C   UNL     1       0.437  -3.162   0.179  1.00  0.00     0.032 A 
BRANCH  35  38
HETATM   38  O   UNL     1       3.926  -2.252   0.752  1.00  0.00    -0.345 OA
BRANCH  38  39
HETATM   39  C   UNL     1       4.544  -2.252  -0.532  1.00  0.00     0.214 C 
BRANCH  39  40
HETATM   40  C   UNL     1       5.908  -1.637  -0.419  1.00  0.00    -0.031 A 
HETATM   41  C   UNL     1       6.061  -0.266  -0.592  1.00  0.00     0.051 A 
HETATM   42  C   UNL     1       7.328   0.307  -0.486  1.00  0.00     0.117 A 
HETATM   43  F   UNL     1       7.484   1.627  -0.650  1.00  0.00    -0.206 F 
HETATM   44  C   UNL     1       8.435  -0.496  -0.206  1.00  0.00     0.042 A 
HETATM   45  C   UNL     1       8.273  -1.871  -0.033  1.00  0.00     0.004 A 
HETATM   46  C   UNL     1       7.006  -2.443  -0.140  1.00  0.00     0.009 A 
ENDBRANCH  39  40
ENDBRANCH  38  39
ENDBRANCH  35  38
ENDBRANCH  29  31
ENDBRANCH  10  29
TORSDOF 11
