REMARK  11 active torsions:
REMARK  status: ('A' for Active; 'I' for Inactive)
REMARK    1  A    between atoms: S_2  and  C_13 
REMARK    2  A    between atoms: O_8  and  C_29 
REMARK    3  A    between atoms: O_8  and  C_33 
REMARK    4  A    between atoms: N_9  and  C_14 
REMARK    5  A    between atoms: N_9  and  C_15 
REMARK    6  A    between atoms: N_10  and  C_25 
REMARK    7  A    between atoms: N_10  and  C_26 
REMARK    8  A    between atoms: C_13  and  C_14 
REMARK    9  A    between atoms: C_15  and  C_16 
REMARK   10  A    between atoms: C_17  and  C_18 
REMARK   11  A    between atoms: C_33  and  C_34 
ROOT
HETATM    1  S   UNL     1      -3.260   2.029   0.149  1.00  0.00    -0.067 SA
HETATM    2  N   UNL     1      -1.128   3.412   0.947  1.00  0.00    -0.234 NA
HETATM    3  N   UNL     1       1.089   2.538   0.501  1.00  0.00    -0.223 NA
HETATM    4  C   UNL     1      -2.981   0.548  -0.662  1.00  0.00     0.042 A 
HETATM    5  C   UNL     1      -0.813   1.293  -0.216  1.00  0.00     0.047 A 
HETATM    6  C   UNL     1      -1.637   0.274  -0.791  1.00  0.00     0.040 A 
HETATM    7  C   UNL     1      -1.588   2.307   0.330  1.00  0.00     0.113 A 
HETATM    8  C   UNL     1       0.573   1.448  -0.108  1.00  0.00     0.142 A 
HETATM    9  C   UNL     1       0.217   3.443   0.985  1.00  0.00     0.236 A 
ENDROOT
BRANCH   8  10
HETATM   10  N   UNL     1       1.446   0.474  -0.629  1.00  0.00    -0.340 N 
HETATM   11  H   UNL     1       0.978  -0.371  -0.944  1.00  0.00     0.167 HD
BRANCH  10  12
HETATM   12  C   UNL     1       2.852   0.370  -0.663  1.00  0.00     0.035 A 
HETATM   13  C   UNL     1       3.458  -0.887  -0.655  1.00  0.00     0.056 A 
HETATM   14  C   UNL     1       4.849  -0.990  -0.688  1.00  0.00     0.069 A 
HETATM   15 CL   UNL     1       5.573  -2.556  -0.676  1.00  0.00    -0.081 Cl
HETATM   16  C   UNL     1       5.633   0.163  -0.730  1.00  0.00     0.091 A 
HETATM   17  C   UNL     1       5.026   1.419  -0.739  1.00  0.00     0.041 A 
HETATM   18  C   UNL     1       3.636   1.522  -0.705  1.00  0.00     0.032 A 
BRANCH  16  19
HETATM   19  O   UNL     1       6.994   0.093  -0.764  1.00  0.00    -0.345 OA
BRANCH  19  20
HETATM   20  C   UNL     1       7.700   0.715   0.307  1.00  0.00     0.214 C 
BRANCH  20  21
HETATM   21  C   UNL     1       9.001  -0.003   0.518  1.00  0.00    -0.031 A 
HETATM   22  C   UNL     1       9.017  -1.249   1.145  1.00  0.00     0.051 A 
HETATM   23  C   UNL     1      10.227  -1.915   1.341  1.00  0.00     0.117 A 
HETATM   24  F   UNL     1      10.242  -3.112   1.943  1.00  0.00    -0.206 F 
HETATM   25  C   UNL     1      11.420  -1.336   0.910  1.00  0.00     0.042 A 
HETATM   26  C   UNL     1      11.404  -0.090   0.283  1.00  0.00     0.004 A 
HETATM   27  C   UNL     1      10.195   0.577   0.087  1.00  0.00     0.009 A 
ENDBRANCH  20  21
ENDBRANCH  19  20
ENDBRANCH  16  19
ENDBRANCH  10  12
ENDBRANCH   8  10
BRANCH   4  28
HETATM   28  C   UNL     1      -4.066  -0.245  -1.116  1.00  0.00     0.093 A 
HETATM   29  O   UNL     1      -5.360   0.126  -0.932  1.00  0.00    -0.312 OA
HETATM   30  C   UNL     1      -6.127  -0.852  -1.482  1.00  0.00     0.081 A 
HETATM   31  C   UNL     1      -5.336  -1.844  -2.015  1.00  0.00     0.037 A 
HETATM   32  C   UNL     1      -3.998  -1.449  -1.778  1.00  0.00     0.041 A 
BRANCH  30  33
HETATM   33  C   UNL     1      -7.582  -0.662  -1.399  1.00  0.00     0.334 C 
BRANCH  33  34
HETATM   34  N   UNL     1      -8.127  -0.944  -0.060  1.00  0.00     0.090 N 
HETATM   35  H   UNL     1      -7.692  -0.318   0.618  1.00  0.00     0.316 HD
BRANCH  34  36
HETATM   36  C   UNL     1      -9.565  -0.747  -0.049  1.00  0.00     0.284 C 
BRANCH  36  37
HETATM   37  C   UNL     1     -10.137  -0.992   1.338  1.00  0.00     0.169 C 
BRANCH  37  38
HETATM   38  S   UNL     1     -11.882  -0.729   1.365  1.00  0.00     0.142 S 
HETATM   39  O   UNL     1     -12.132   0.689   1.166  1.00  0.00    -0.228 OA
HETATM   40  O   UNL     1     -12.504  -1.718   0.501  1.00  0.00    -0.228 OA
HETATM   41  C   UNL     1     -12.330  -1.122   3.041  1.00  0.00     0.161 C 
ENDBRANCH  37  38
ENDBRANCH  36  37
ENDBRANCH  34  36
ENDBRANCH  33  34
ENDBRANCH  30  33
ENDBRANCH   4  28
TORSDOF 11
