REMARK  7 active torsions:
REMARK  status: ('A' for Active; 'I' for Inactive)
REMARK    1  A    between atoms: O_3  and  C_15 
REMARK    2  A    between atoms: O_4  and  C_20 
REMARK    3  A    between atoms: O_4  and  C_23 
REMARK    4  A    between atoms: N_5  and  C_10 
REMARK    5  A    between atoms: N_6  and  C_12 
REMARK    6  A    between atoms: N_6  and  C_16 
REMARK    7  A    between atoms: C_10  and  C_15 
ROOT
HETATM    1 CL   UNL     1       2.459   3.210   1.518  1.00  0.00    -0.081 Cl
HETATM    2  C   UNL     1      -0.276   0.772  -0.073  1.00  0.00     0.035 A 
HETATM    3  C   UNL     1       0.351   1.741   0.710  1.00  0.00     0.056 A 
HETATM    4  C   UNL     1       0.455   0.069  -1.031  1.00  0.00     0.032 A 
HETATM    5  C   UNL     1       2.440   1.304  -0.422  1.00  0.00     0.098 A 
HETATM    6  C   UNL     1       1.709   2.006   0.536  1.00  0.00     0.070 A 
HETATM    7  C   UNL     1       1.813   0.335  -1.206  1.00  0.00     0.041 A 
ENDROOT
BRANCH   2   8
HETATM    8  N   UNL     1      -1.651   0.503   0.103  1.00  0.00    -0.339 N 
HETATM    9  H   UNL     1      -2.102   1.268   0.573  1.00  0.00     0.167 HD
BRANCH   8  10
HETATM   10  C   UNL     1      -2.426  -0.657  -0.070  1.00  0.00     0.159 A 
HETATM   11  N   UNL     1      -1.839  -1.801  -0.484  1.00  0.00    -0.222 NA
HETATM   12  C   UNL     1      -2.629  -2.887  -0.634  1.00  0.00     0.236 A 
HETATM   13  N   UNL     1      -3.956  -2.999  -0.425  1.00  0.00    -0.240 NA
HETATM   14  C   UNL     1      -4.522  -1.839  -0.010  1.00  0.00     0.090 A 
HETATM   15  C   UNL     1      -3.788  -0.670   0.172  1.00  0.00     0.110 A 
HETATM   16  C   UNL     1      -5.871  -1.552   0.311  1.00  0.00     0.051 A 
HETATM   17  N   UNL     1      -4.664   0.299   0.592  1.00  0.00    -0.350 N 
HETATM   18  C   UNL     1      -5.929  -0.225   0.679  1.00  0.00     0.094 A 
BRANCH  17  19
HETATM   19  C   UNL     1      -4.341   1.674   0.907  1.00  0.00     0.154 C 
BRANCH  19  20
HETATM   20  C   UNL     1      -4.156   2.527  -0.344  1.00  0.00     0.184 C 
BRANCH  20  21
HETATM   21  O   UNL     1      -5.340   2.490  -1.129  1.00  0.00    -0.399 OA
HETATM   22  H   UNL     1      -5.188   3.059  -1.903  1.00  0.00     0.209 HD
ENDBRANCH  20  21
ENDBRANCH  19  20
ENDBRANCH  17  19
ENDBRANCH   8  10
ENDBRANCH   2   8
BRANCH   5  23
HETATM   23  O   UNL     1       3.768   1.543  -0.615  1.00  0.00    -0.309 OA
BRANCH  23  24
HETATM   24  C   UNL     1       4.645   0.489  -0.421  1.00  0.00     0.077 A 
HETATM   25  C   UNL     1       4.510  -0.333   0.697  1.00  0.00     0.061 A 
HETATM   26  C   UNL     1       5.393  -1.395   0.892  1.00  0.00     0.036 A 
HETATM   27 CL   UNL     1       5.227  -2.410   2.272  1.00  0.00    -0.084 Cl
HETATM   28  C   UNL     1       6.411  -1.635  -0.031  1.00  0.00     0.024 A 
HETATM   29  C   UNL     1       6.546  -0.812  -1.149  1.00  0.00     0.004 A 
HETATM   30  C   UNL     1       5.662   0.250  -1.345  1.00  0.00     0.037 A 
ENDBRANCH  23  24
ENDBRANCH   5  23
TORSDOF 7
