REMARK  7 active torsions:
REMARK  status: ('A' for Active; 'I' for Inactive)
REMARK    1  A    between atoms: O_1  and  C_16 
REMARK    2  A    between atoms: O_1  and  C_25 
REMARK    3  A    between atoms: O_4  and  C_24 
REMARK    4  A    between atoms: O_7  and  N_12 
REMARK       I    between atoms: N_8  and  C_24 
REMARK       I    between atoms: N_9  and  C_18 
REMARK    5  A    between atoms: N_10  and  C_30 
REMARK       I    between atoms: N_11  and  C_25 
REMARK       I    between atoms: N_12  and  C_19 
REMARK    6  A    between atoms: C_13  and  C_18 
REMARK    7  A    between atoms: C_14  and  C_19 
ROOT
HETATM    1  O   UNL     1      -1.824   2.848  -2.348  1.00  0.00    -0.238 OA
HETATM    2  N   UNL     1      -1.207   1.226  -0.794  1.00  0.00    -0.311 N 
HETATM    3  C   UNL     1      -0.159   0.632   0.051  1.00  0.00     0.195 C 
HETATM    4  C   UNL     1      -0.682  -0.030   1.333  1.00  0.00     0.114 C 
HETATM    5  C   UNL     1      -1.994  -0.794   1.151  1.00  0.00     0.051 C 
HETATM    6  C   UNL     1      -3.023   0.008   0.360  1.00  0.00     0.152 C 
HETATM    7  C   UNL     1      -2.441   0.461  -0.972  1.00  0.00     0.161 C 
HETATM    8  C   UNL     1      -1.015   2.401  -1.538  1.00  0.00     0.363 C 
ENDROOT
BRANCH   3   9
HETATM    9  C   UNL     1       0.571  -0.354  -0.815  1.00  0.00     0.243 C 
HETATM   10  O   UNL     1      -0.046  -0.976  -1.682  1.00  0.00    -0.271 OA
HETATM   11  N   UNL     1       1.935  -0.502  -0.564  1.00  0.00    -0.347 N 
HETATM   12  C   UNL     1       2.717  -1.437  -1.369  1.00  0.00     0.145 C 
HETATM   13  C   UNL     1       2.666   0.239   0.467  1.00  0.00     0.145 C 
HETATM   14  C   UNL     1       4.153  -0.957  -1.568  1.00  0.00     0.143 C 
HETATM   15  N   UNL     1       4.807  -0.729  -0.276  1.00  0.00    -0.378 N 
HETATM   16  C   UNL     1       3.961  -0.455   0.888  1.00  0.00     0.143 C 
BRANCH  15  17
HETATM   17  C   UNL     1       6.192  -0.806  -0.157  1.00  0.00     0.030 A 
HETATM   18  C   UNL     1       6.766  -1.244   1.036  1.00  0.00     0.029 A 
HETATM   19  C   UNL     1       8.154  -1.322   1.156  1.00  0.00     0.002 A 
HETATM   20  C   UNL     1       8.968  -0.961   0.082  1.00  0.00     0.000 A 
HETATM   21  C   UNL     1       8.394  -0.523  -1.111  1.00  0.00     0.002 A 
HETATM   22  C   UNL     1       7.006  -0.445  -1.231  1.00  0.00     0.029 A 
ENDBRANCH  15  17
ENDBRANCH   3   9
BRANCH   4  23
HETATM   23  C   UNL     1      -0.850   1.007   2.407  1.00  0.00     0.247 C 
HETATM   24  O   UNL     1      -1.642   1.938   2.279  1.00  0.00    -0.271 OA
HETATM   25  N   UNL     1      -0.053   0.782   3.498  1.00  0.00    -0.237 N 
HETATM   26  H   UNL     1       0.509  -0.041   3.681  1.00  0.00     0.197 HD
BRANCH  25  27
HETATM   27  O   UNL     1      -0.174   1.711   4.541  1.00  0.00    -0.287 OA
HETATM   28  H   UNL     1       0.564   2.307   4.327  1.00  0.00     0.244 HD
ENDBRANCH  25  27
ENDBRANCH   4  23
BRANCH   8  29
HETATM   29  O   UNL     1       0.184   3.007  -1.270  1.00  0.00    -0.309 OA
HETATM   30  C   UNL     1       0.458   4.212  -1.994  1.00  0.00     0.215 C 
ENDBRANCH   8  29
BRANCH   6  31
HETATM   31  O   UNL     1      -4.168  -0.821   0.129  1.00  0.00    -0.297 OA
BRANCH  31  32
HETATM   32  C   UNL     1      -5.372  -0.173   0.056  1.00  0.00     0.363 C 
HETATM   33  O   UNL     1      -5.503   1.043   0.176  1.00  0.00    -0.238 OA
HETATM   34  N   UNL     1      -6.418  -1.049  -0.171  1.00  0.00    -0.328 N 
HETATM   35  C   UNL     1      -6.299  -2.493  -0.327  1.00  0.00     0.128 C 
HETATM   36  C   UNL     1      -7.801  -0.616  -0.293  1.00  0.00     0.128 C 
HETATM   37  C   UNL     1      -7.734  -2.997  -0.278  1.00  0.00     0.022 C 
HETATM   38  C   UNL     1      -8.527  -1.830  -0.854  1.00  0.00     0.022 C 
ENDBRANCH  31  32
ENDBRANCH   6  31
TORSDOF 7
