REMARK  8 active torsions:
REMARK  status: ('A' for Active; 'I' for Inactive)
REMARK    1  A    between atoms: O_3  and  C_25 
REMARK    2  A    between atoms: O_3  and  C_26 
REMARK    3  A    between atoms: O_5  and  C_30 
REMARK    4  A    between atoms: N_7  and  C_17 
REMARK    5  A    between atoms: N_7  and  C_19 
REMARK       I    between atoms: N_9  and  C_18 
REMARK    6  A    between atoms: N_9  and  C_20 
REMARK    7  A    between atoms: C_13  and  C_18 
REMARK    8  A    between atoms: C_20  and  C_30 
ROOT
HETATM    1  N   UNL     1       5.303   2.044  -1.460  1.00  0.00    -0.374 N 
HETATM    2  N   UNL     1       3.886   3.654  -0.609  1.00  0.00    -0.224 NA
HETATM    3  N   UNL     1       2.080   3.202   0.892  1.00  0.00    -0.223 NA
HETATM    4  C   UNL     1       5.383  -0.383  -1.782  1.00  0.00     0.064 C 
HETATM    5  C   UNL     1       6.125   0.864  -1.332  1.00  0.00     0.126 C 
HETATM    6  C   UNL     1       4.369  -0.842  -0.783  1.00  0.00     0.012 C 
HETATM    7  C   UNL     1       3.449   1.382   0.016  1.00  0.00     0.056 A 
HETATM    8  C   UNL     1       4.206   2.332  -0.674  1.00  0.00     0.139 A 
HETATM    9  C   UNL     1       3.583  -0.087  -0.001  1.00  0.00     0.032 C 
HETATM   10  C   UNL     1       2.404   1.898   0.789  1.00  0.00     0.143 A 
HETATM   11  C   UNL     1       2.851   4.016   0.168  1.00  0.00     0.237 A 
HETATM   12  H   UNL     1       5.722   2.843  -1.925  1.00  0.00     0.161 HD
ENDROOT
BRANCH  10  13
HETATM   13  N   UNL     1       1.570   1.030   1.541  1.00  0.00    -0.340 N 
HETATM   14  H   UNL     1       2.084   0.434   2.183  1.00  0.00     0.167 HD
BRANCH  13  15
HETATM   15  C   UNL     1       0.189   0.785   1.511  1.00  0.00     0.035 A 
HETATM   16  C   UNL     1      -0.374  -0.144   2.385  1.00  0.00     0.056 A 
HETATM   17  C   UNL     1      -1.747  -0.387   2.356  1.00  0.00     0.070 A 
HETATM   18 CL   UNL     1      -2.416  -1.544   3.448  1.00  0.00    -0.081 Cl
HETATM   19  C   UNL     1      -2.558   0.300   1.452  1.00  0.00     0.098 A 
HETATM   20  C   UNL     1      -1.995   1.229   0.578  1.00  0.00     0.041 A 
HETATM   21  C   UNL     1      -0.622   1.472   0.608  1.00  0.00     0.032 A 
BRANCH  19  22
HETATM   22  O   UNL     1      -3.902   0.082   1.401  1.00  0.00    -0.308 OA
BRANCH  22  23
HETATM   23  C   UNL     1      -4.433  -0.374   0.207  1.00  0.00     0.087 A 
HETATM   24  C   UNL     1      -5.415   0.373  -0.487  1.00  0.00     0.015 A 
HETATM   25  C   UNL     1      -5.912  -0.144  -1.688  1.00  0.00     0.017 A 
HETATM   26  C   UNL     1      -6.028   1.631  -0.170  1.00  0.00     0.023 A 
HETATM   27  S   UNL     1      -7.093   0.903  -2.382  1.00  0.00    -0.101 SA
HETATM   28  C   UNL     1      -5.458  -1.373  -2.205  1.00  0.00     0.020 A 
HETATM   29  C   UNL     1      -6.950   2.029  -1.110  1.00  0.00     0.051 A 
HETATM   30  C   UNL     1      -4.489  -2.086  -1.496  1.00  0.00     0.004 A 
HETATM   31  C   UNL     1      -3.980  -1.594  -0.303  1.00  0.00     0.038 A 
ENDBRANCH  22  23
ENDBRANCH  19  22
ENDBRANCH  13  15
ENDBRANCH  10  13
BRANCH   6  32
HETATM   32  C   UNL     1       4.230  -2.297  -0.603  1.00  0.00     0.247 C 
HETATM   33  O   UNL     1       5.191  -2.978  -0.259  1.00  0.00    -0.268 OA
HETATM   34  N   UNL     1       2.950  -2.745  -0.861  1.00  0.00    -0.355 N 
HETATM   35  H   UNL     1       2.233  -2.087  -1.153  1.00  0.00     0.162 HD
BRANCH  34  36
HETATM   36  C   UNL     1       2.564  -4.135  -0.754  1.00  0.00     0.148 C 
BRANCH  36  37
HETATM   37  C   UNL     1       2.072  -4.471   0.642  1.00  0.00     0.183 C 
BRANCH  37  38
HETATM   38  O   UNL     1       0.964  -3.640   0.965  1.00  0.00    -0.399 OA
HETATM   39  H   UNL     1       0.679  -3.881   1.863  1.00  0.00     0.209 HD
ENDBRANCH  37  38
ENDBRANCH  36  37
ENDBRANCH  34  36
ENDBRANCH   6  32
TORSDOF 8
