REMARK  7 active torsions:
REMARK  status: ('A' for Active; 'I' for Inactive)
REMARK    1  A    between atoms: N_2  and  C_15 
REMARK    2  A    between atoms: N_3  and  C_13 
REMARK    3  A    between atoms: N_3  and  C_14 
REMARK    4  A    between atoms: N_8  and  C_26 
REMARK       I    between atoms: N_8  and  C_35 
REMARK    5  A    between atoms: C_12  and  C_19 
REMARK    6  A    between atoms: C_15  and  C_23 
REMARK    7  A    between atoms: C_35  and  C_36 
ROOT
HETATM    1  N   UNL     1      -5.939   0.918  -1.104  1.00  0.00    -0.349 N 
HETATM    2  N   UNL     1      -2.660   3.061  -0.113  1.00  0.00    -0.223 NA
HETATM    3  N   UNL     1      -4.876   3.082  -1.121  1.00  0.00    -0.223 NA
HETATM    4  C   UNL     1      -3.899   1.038  -0.207  1.00  0.00     0.068 A 
HETATM    5  C   UNL     1      -4.363  -0.299  -0.108  1.00  0.00     0.007 A 
HETATM    6  C   UNL     1      -2.748   1.737   0.153  1.00  0.00     0.144 A 
HETATM    7  C   UNL     1      -4.902   1.770  -0.830  1.00  0.00     0.143 A 
HETATM    8  C   UNL     1      -5.622  -0.343  -0.669  1.00  0.00     0.103 A 
HETATM    9  C   UNL     1      -3.716   3.643  -0.725  1.00  0.00     0.237 A 
HETATM   10  H   UNL     1      -6.804   1.179  -1.556  1.00  0.00     0.167 HD
ENDROOT
BRANCH   6  11
HETATM   11  N   UNL     1      -1.673   1.088   0.789  1.00  0.00    -0.340 N 
HETATM   12  H   UNL     1      -1.927   0.220   1.248  1.00  0.00     0.167 HD
BRANCH  11  13
HETATM   13  C   UNL     1      -0.280   1.319   0.783  1.00  0.00     0.034 A 
HETATM   14  C   UNL     1       0.240   2.377   0.028  1.00  0.00     0.044 A 
HETATM   15  C   UNL     1       1.628   2.590   0.036  1.00  0.00     0.014 A 
HETATM   16  C   UNL     1       2.441   1.750   0.788  1.00  0.00     0.065 A 
HETATM   17  C   UNL     1       2.525   3.503  -0.560  1.00  0.00     0.152 A 
HETATM   18  N   UNL     1       3.715   2.210   0.591  1.00  0.00    -0.265 N 
HETATM   19  C   UNL     1       1.944   0.688   1.547  1.00  0.00     0.034 A 
HETATM   20  N   UNL     1       3.796   3.275  -0.224  1.00  0.00    -0.183 NA
HETATM   21  C   UNL     1       0.560   0.490   1.529  1.00  0.00     0.032 A 
BRANCH  18  22
HETATM   22  C   UNL     1       4.927   1.667   1.162  1.00  0.00     0.190 C 
BRANCH  22  23
HETATM   23  C   UNL     1       5.405   0.415   0.469  1.00  0.00    -0.038 A 
HETATM   24  C   UNL     1       5.583  -0.760   1.199  1.00  0.00     0.009 A 
HETATM   25  C   UNL     1       6.026  -1.918   0.560  1.00  0.00     0.001 A 
HETATM   26  C   UNL     1       6.290  -1.901  -0.810  1.00  0.00     0.000 A 
HETATM   27  C   UNL     1       6.112  -0.725  -1.540  1.00  0.00     0.001 A 
HETATM   28  C   UNL     1       5.669   0.433  -0.900  1.00  0.00     0.009 A 
ENDBRANCH  22  23
ENDBRANCH  18  22
ENDBRANCH  11  13
ENDBRANCH   6  11
BRANCH   5  29
HETATM   29  C   UNL     1      -3.735  -1.465   0.444  1.00  0.00    -0.021 A 
HETATM   30  C   UNL     1      -2.522  -1.917  -0.075  1.00  0.00     0.042 A 
HETATM   31  C   UNL     1      -1.912  -3.049   0.464  1.00  0.00     0.035 A 
HETATM   32  C   UNL     1      -2.515  -3.731   1.521  1.00  0.00     0.029 A 
HETATM   33  C   UNL     1      -3.728  -3.279   2.040  1.00  0.00     0.003 A 
HETATM   34  C   UNL     1      -4.338  -2.146   1.502  1.00  0.00     0.012 A 
BRANCH  31  35
HETATM   35  N   UNL     1      -0.698  -3.503  -0.056  1.00  0.00    -0.324 N 
HETATM   36  C   UNL     1       0.050  -2.954  -1.106  1.00  0.00     0.244 C 
HETATM   37  O   UNL     1      -0.225  -1.963  -1.771  1.00  0.00    -0.268 OA
HETATM   38  H   UNL     1      -0.326  -4.335   0.397  1.00  0.00     0.169 HD
BRANCH  36  39
HETATM   39  C   UNL     1       1.295  -3.736  -1.360  1.00  0.00     0.064 C 
HETATM   40  C   UNL     1       2.143  -3.368  -2.326  1.00  0.00     0.017 C 
ENDBRANCH  36  39
ENDBRANCH  31  35
ENDBRANCH   5  29
TORSDOF 7
