REMARK  10 active torsions:
REMARK  status: ('A' for Active; 'I' for Inactive)
REMARK    1  A    between atoms: O_4  and  C_11 
REMARK    2  A    between atoms: O_4  and  C_16 
REMARK    3  A    between atoms: O_6  and  C_29 
REMARK    4  A    between atoms: O_6  and  C_32 
REMARK    5  A    between atoms: N_8  and  C_24 
REMARK    6  A    between atoms: N_8  and  C_25 
REMARK    7  A    between atoms: C_13  and  C_15 
REMARK    8  A    between atoms: C_16  and  C_17 
REMARK    9  A    between atoms: C_18  and  C_19 
REMARK   10  A    between atoms: C_32  and  C_33 
ROOT
HETATM    1  S   UNL     1       2.422  -0.903   0.177  1.00  0.00    -0.075 SA
HETATM    2  N   UNL     1       0.774  -4.410  -0.083  1.00  0.00    -0.241 NA
HETATM    3  N   UNL     1      -1.080  -2.863   0.086  1.00  0.00    -0.223 NA
HETATM    4  C   UNL     1       3.600  -2.135   0.049  1.00  0.00     0.061 A 
HETATM    5  C   UNL     1       3.034  -3.386  -0.045  1.00  0.00     0.061 A 
HETATM    6  C   UNL     1       1.133  -2.033   0.109  1.00  0.00     0.081 A 
HETATM    7  C   UNL     1       1.608  -3.339  -0.011  1.00  0.00     0.081 A 
HETATM    8  C   UNL     1      -0.239  -1.812   0.157  1.00  0.00     0.149 A 
HETATM    9  C   UNL     1      -0.529  -4.085  -0.028  1.00  0.00     0.236 A 
ENDROOT
BRANCH   8  10
HETATM   10  N   UNL     1      -0.763  -0.512   0.276  1.00  0.00    -0.340 N 
HETATM   11  H   UNL     1      -0.059   0.216   0.187  1.00  0.00     0.167 HD
BRANCH  10  12
HETATM   12  C   UNL     1      -2.081  -0.014   0.345  1.00  0.00     0.035 A 
HETATM   13  C   UNL     1      -3.093  -0.792   0.908  1.00  0.00     0.056 A 
HETATM   14  C   UNL     1      -4.396  -0.299   0.977  1.00  0.00     0.069 A 
HETATM   15 CL   UNL     1      -5.628  -1.285   1.673  1.00  0.00    -0.081 Cl
HETATM   16  C   UNL     1      -4.687   0.972   0.482  1.00  0.00     0.091 A 
HETATM   17  C   UNL     1      -3.676   1.751  -0.080  1.00  0.00     0.041 A 
HETATM   18  C   UNL     1      -2.373   1.258  -0.148  1.00  0.00     0.032 A 
BRANCH  16  19
HETATM   19  O   UNL     1      -5.951   1.480   0.538  1.00  0.00    -0.345 OA
BRANCH  19  20
HETATM   20  C   UNL     1      -6.566   1.823  -0.702  1.00  0.00     0.214 C 
BRANCH  20  21
HETATM   21  C   UNL     1      -8.053   1.679  -0.568  1.00  0.00    -0.031 A 
HETATM   22  C   UNL     1      -8.633   0.410  -0.557  1.00  0.00     0.051 A 
HETATM   23  C   UNL     1     -10.016   0.276  -0.433  1.00  0.00     0.117 A 
HETATM   24  F   UNL     1     -10.572  -0.942  -0.423  1.00  0.00    -0.206 F 
HETATM   25  C   UNL     1     -10.819   1.411  -0.321  1.00  0.00     0.042 A 
HETATM   26  C   UNL     1     -10.239   2.680  -0.332  1.00  0.00     0.004 A 
HETATM   27  C   UNL     1      -8.856   2.814  -0.456  1.00  0.00     0.009 A 
ENDBRANCH  20  21
ENDBRANCH  19  20
ENDBRANCH  16  19
ENDBRANCH  10  12
ENDBRANCH   8  10
BRANCH   4  28
HETATM   28  C   UNL     1       5.006  -1.872   0.041  1.00  0.00    -0.057 C 
HETATM   29  C   UNL     1       6.186  -1.651   0.035  1.00  0.00    -0.065 C 
BRANCH  29  30
HETATM   30  C   UNL     1       7.632  -1.379   0.028  1.00  0.00     0.301 C 
HETATM   31  N   UNL     1       8.172  -1.255  -1.328  1.00  0.00     0.102 N 
HETATM   32  C   UNL     1       7.872   0.101  -1.793  1.00  0.00     0.303 C 
HETATM   33  H   UNL     1       7.790  -1.958  -1.958  1.00  0.00     0.317 HD
HETATM   34  C   UNL     1       7.835   0.958  -0.532  1.00  0.00     0.162 C 
HETATM   35  C   UNL     1       7.964  -0.022   0.631  1.00  0.00     0.083 C 
BRANCH  34  36
HETATM   36  O   UNL     1       8.913   1.880  -0.528  1.00  0.00    -0.314 OA
BRANCH  36  37
HETATM   37  C   UNL     1       8.705   3.039   0.173  1.00  0.00     0.258 C 
HETATM   38  O   UNL     1       7.683   3.329   0.780  1.00  0.00    -0.265 OA
BRANCH  37  39
HETATM   39  C   UNL     1       9.939   3.906   0.080  1.00  0.00     0.106 C 
HETATM   40  C   UNL     1       9.771   5.220   0.822  1.00  0.00     0.015 C 
ENDBRANCH  37  39
ENDBRANCH  36  37
ENDBRANCH  34  36
ENDBRANCH  29  30
ENDBRANCH   4  28
TORSDOF 10
