REMARK  7 active torsions:
REMARK  status: ('A' for Active; 'I' for Inactive)
REMARK    1  A    between atoms: O_2  and  C_20 
REMARK    2  A    between atoms: O_2  and  C_22 
REMARK    3  A    between atoms: N_4  and  C_17 
REMARK    4  A    between atoms: N_5  and  C_13 
REMARK    5  A    between atoms: N_5  and  C_18 
REMARK       I    between atoms: N_8  and  C_25 
REMARK    6  A    between atoms: C_17  and  C_26 
REMARK    7  A    between atoms: C_22  and  C_25 
ROOT
HETATM    1  N   UNL     1       1.760   2.714  -0.044  1.00  0.00    -0.223 NA
HETATM    2  N   UNL     1       3.981   3.437  -0.636  1.00  0.00    -0.241 NA
HETATM    3  C   UNL     1       3.644   1.222   0.220  1.00  0.00     0.072 A 
HETATM    4  C   UNL     1       2.288   1.527   0.310  1.00  0.00     0.144 A 
HETATM    5  C   UNL     1       4.175  -0.021   0.594  1.00  0.00     0.086 A 
HETATM    6  C   UNL     1       4.476   2.241  -0.274  1.00  0.00     0.075 A 
HETATM    7  C   UNL     1       5.538  -0.265   0.481  1.00  0.00     0.038 A 
HETATM    8  C   UNL     1       5.838   1.973  -0.378  1.00  0.00     0.033 A 
HETATM    9  C   UNL     1       6.372   0.735  -0.006  1.00  0.00     0.005 A 
HETATM   10  C   UNL     1       2.650   3.609  -0.502  1.00  0.00     0.236 A 
ENDROOT
BRANCH   4  11
HETATM   11  N   UNL     1       1.363   0.575   0.796  1.00  0.00    -0.340 N 
HETATM   12  H   UNL     1       1.703   0.073   1.612  1.00  0.00     0.167 HD
BRANCH  11  13
HETATM   13  C   UNL     1       0.003   0.346   0.524  1.00  0.00     0.034 A 
HETATM   14  C   UNL     1      -0.825  -0.195   1.520  1.00  0.00     0.044 A 
HETATM   15  C   UNL     1      -2.181  -0.416   1.227  1.00  0.00     0.014 A 
HETATM   16  C   UNL     1      -2.666  -0.093  -0.036  1.00  0.00     0.065 A 
HETATM   17  C   UNL     1      -3.305  -0.921   1.915  1.00  0.00     0.152 A 
HETATM   18  N   UNL     1      -3.995  -0.419  -0.005  1.00  0.00    -0.263 N 
HETATM   19  C   UNL     1      -1.865   0.447  -1.044  1.00  0.00     0.034 A 
HETATM   20  N   UNL     1      -4.412  -0.924   1.168  1.00  0.00    -0.183 NA
HETATM   21  C   UNL     1      -0.517   0.660  -0.737  1.00  0.00     0.032 A 
BRANCH  18  22
HETATM   22  C   UNL     1      -4.945  -0.270  -1.084  1.00  0.00     0.218 C 
BRANCH  22  23
HETATM   23  C   UNL     1      -6.232   0.330  -0.589  1.00  0.00     0.094 A 
HETATM   24  S   UNL     1      -7.669  -0.565  -0.782  1.00  0.00    -0.084 SA
HETATM   25  C   UNL     1      -8.517   0.722  -0.030  1.00  0.00     0.071 A 
HETATM   26  C   UNL     1      -7.632   1.726   0.303  1.00  0.00     0.124 A 
HETATM   27  N   UNL     1      -6.309   1.497  -0.020  1.00  0.00    -0.256 NA
ENDBRANCH  22  23
ENDBRANCH  18  22
ENDBRANCH  11  13
ENDBRANCH   4  11
BRANCH   5  28
HETATM   28  O   UNL     1       3.414  -1.049   1.082  1.00  0.00    -0.336 OA
BRANCH  28  29
HETATM   29  C   UNL     1       3.428  -2.264   0.339  1.00  0.00     0.216 C 
HETATM   30  C   UNL     1       3.953  -3.374   1.237  1.00  0.00     0.050 C 
BRANCH  29  31
HETATM   31  C   UNL     1       2.007  -2.554  -0.140  1.00  0.00     0.248 C 
HETATM   32  O   UNL     1       1.121  -2.775   0.694  1.00  0.00    -0.270 OA
HETATM   33  N   UNL     1       1.774  -2.553  -1.518  1.00  0.00    -0.359 N 
HETATM   34  C   UNL     1       2.829  -2.290  -2.494  1.00  0.00     0.152 C 
HETATM   35  C   UNL     1       0.459  -2.813  -2.092  1.00  0.00     0.152 C 
ENDBRANCH  29  31
ENDBRANCH  28  29
ENDBRANCH   5  28
TORSDOF 7
