REMARK  9 active torsions:
REMARK  status: ('A' for Active; 'I' for Inactive)
REMARK    1  A    between atoms: O_1  and  C_16 
REMARK    2  A    between atoms: O_1  and  C_21 
REMARK    3  A    between atoms: N_4  and  C_20 
REMARK       I    between atoms: N_4  and  C_21 
REMARK    4  A    between atoms: N_6  and  C_23 
REMARK    5  A    between atoms: N_6  and  C_24 
REMARK    6  A    between atoms: N_8  and  C_32 
REMARK    7  A    between atoms: C_11  and  C_16 
REMARK    8  A    between atoms: C_18  and  C_22 
REMARK    9  A    between atoms: C_32  and  C_34 
ROOT
HETATM    1  N   UNL     1      -3.324   2.558  -0.100  1.00  0.00    -0.239 NA
HETATM    2  N   UNL     1      -1.506   3.833   0.957  1.00  0.00    -0.250 NA
HETATM    3  N   UNL     1       0.729   3.174   0.392  1.00  0.00    -0.224 NA
HETATM    4  C   UNL     1      -1.105   1.935  -0.496  1.00  0.00     0.043 A 
HETATM    5  C   UNL     1      -1.792   0.806  -0.658  1.00  0.00     0.001 A 
HETATM    6  C   UNL     1      -1.962   3.118  -0.233  1.00  0.00     0.270 A 
HETATM    7  C   UNL     1      -3.155   1.299  -0.392  1.00  0.00     0.136 A 
HETATM    8  C   UNL     1       0.347   2.205  -0.407  1.00  0.00     0.140 C 
HETATM    9  C   UNL     1      -0.225   3.825   1.149  1.00  0.00     0.232 C 
ENDROOT
BRANCH   8  10
HETATM   10  N   UNL     1       1.257   1.483  -1.138  1.00  0.00    -0.340 N 
HETATM   11  H   UNL     1       0.947   1.040  -1.998  1.00  0.00     0.167 HD
BRANCH  10  12
HETATM   12  C   UNL     1       2.573   1.195  -0.782  1.00  0.00     0.034 A 
HETATM   13  C   UNL     1       2.909   1.071   0.572  1.00  0.00     0.044 A 
HETATM   14  C   UNL     1       4.241   0.779   0.909  1.00  0.00     0.014 A 
HETATM   15  C   UNL     1       5.181   0.625  -0.103  1.00  0.00     0.065 A 
HETATM   16  C   UNL     1       4.972   0.579   2.099  1.00  0.00     0.152 A 
HETATM   17  N   UNL     1       6.360   0.353   0.538  1.00  0.00    -0.265 N 
HETATM   18  C   UNL     1       4.868   0.744  -1.459  1.00  0.00     0.034 A 
HETATM   19  N   UNL     1       6.263   0.319   1.878  1.00  0.00    -0.183 NA
HETATM   20  C   UNL     1       3.538   1.034  -1.779  1.00  0.00     0.032 A 
BRANCH  17  21
HETATM   21  C   UNL     1       7.643   0.112  -0.080  1.00  0.00     0.190 C 
BRANCH  21  22
HETATM   22  C   UNL     1       8.018  -1.348  -0.129  1.00  0.00    -0.038 A 
HETATM   23  C   UNL     1       8.500  -1.983   1.015  1.00  0.00     0.009 A 
HETATM   24  C   UNL     1       8.847  -3.334   0.969  1.00  0.00     0.001 A 
HETATM   25  C   UNL     1       8.712  -4.049  -0.221  1.00  0.00     0.000 A 
HETATM   26  C   UNL     1       8.229  -3.414  -1.365  1.00  0.00     0.001 A 
HETATM   27  C   UNL     1       7.883  -2.063  -1.319  1.00  0.00     0.009 A 
ENDBRANCH  21  22
ENDBRANCH  17  21
ENDBRANCH  10  12
ENDBRANCH   8  10
BRANCH   5  28
HETATM   28  C   UNL     1      -1.396  -0.603  -0.856  1.00  0.00     0.039 C 
HETATM   29  C   UNL     1      -1.244  -1.356   0.461  1.00  0.00     0.010 C 
ENDBRANCH   5  28
BRANCH   7  30
HETATM   30  N   UNL     1      -4.187   0.413  -0.436  1.00  0.00    -0.287 N 
HETATM   31  C   UNL     1      -5.509   0.754  -0.206  1.00  0.00     0.366 C 
HETATM   32  O   UNL     1      -5.924   1.876   0.063  1.00  0.00    -0.238 OA
HETATM   33  H   UNL     1      -4.004  -0.562  -0.650  1.00  0.00     0.172 HD
BRANCH  31  34
HETATM   34  O   UNL     1      -6.295  -0.358  -0.325  1.00  0.00    -0.303 OA
BRANCH  34  35
HETATM   35  C   UNL     1      -7.696  -0.156  -0.112  1.00  0.00     0.185 C 
BRANCH  35  36
HETATM   36  C   UNL     1      -8.421  -1.488  -0.281  1.00  0.00     0.013 C 
HETATM   37  C   UNL     1      -7.902  -2.529   0.718  1.00  0.00     0.036 C 
HETATM   38  C   UNL     1      -8.701  -3.829   0.627  1.00  0.00     0.270 C 
HETATM   39  N   UNL     1     -10.135  -3.602   0.822  1.00  0.00     0.083 N 
HETATM   40  C   UNL     1     -10.656  -2.664  -0.174  1.00  0.00     0.270 C 
HETATM   41  H   UNL     1     -10.630  -4.490   0.739  1.00  0.00     0.315 HD
HETATM   42  C   UNL     1      -9.937  -1.316  -0.117  1.00  0.00     0.036 C 
ENDBRANCH  35  36
ENDBRANCH  34  35
ENDBRANCH  31  34
ENDBRANCH   7  30
TORSDOF 9
