REMARK  10 active torsions:
REMARK  status: ('A' for Active; 'I' for Inactive)
REMARK    1  A    between atoms: O_4  and  C_24 
REMARK    2  A    between atoms: O_4  and  C_27 
REMARK    3  A    between atoms: N_5  and  C_13 
REMARK    4  A    between atoms: N_6  and  C_21 
REMARK    5  A    between atoms: N_6  and  C_22 
REMARK    6  A    between atoms: C_13  and  C_14 
REMARK    7  A    between atoms: C_17  and  C_18 
REMARK    8  A    between atoms: C_18  and  C_19 
REMARK    9  A    between atoms: C_19  and  C_20 
REMARK   10  A    between atoms: C_27  and  C_30 
ROOT
HETATM    1  N   UNL     1       0.326   4.273   0.917  1.00  0.00    -0.223 NA
HETATM    2  N   UNL     1      -1.293   5.840   0.063  1.00  0.00    -0.245 NA
HETATM    3  C   UNL     1      -1.756   3.479   0.006  1.00  0.00     0.088 A 
HETATM    4  C   UNL     1      -0.522   3.276   0.591  1.00  0.00     0.150 A 
HETATM    5  C   UNL     1      -2.092   4.795  -0.237  1.00  0.00     0.054 A 
HETATM    6  C   UNL     1      -3.400   5.151  -0.867  1.00  0.00     0.072 C 
HETATM    7  C   UNL     1      -0.117   5.512   0.630  1.00  0.00     0.235 A 
ENDROOT
BRANCH   4   8
HETATM    8  N   UNL     1      -0.110   1.949   0.870  1.00  0.00    -0.340 N 
HETATM    9  H   UNL     1      -0.851   1.379   1.268  1.00  0.00     0.167 HD
BRANCH   8  10
HETATM   10  C   UNL     1       1.155   1.342   0.924  1.00  0.00     0.035 A 
HETATM   11  C   UNL     1       2.192   1.818   0.122  1.00  0.00     0.056 A 
HETATM   12  C   UNL     1       3.449   1.216   0.177  1.00  0.00     0.069 A 
HETATM   13 CL   UNL     1       4.714   1.822  -0.827  1.00  0.00    -0.081 Cl
HETATM   14  C   UNL     1       3.669   0.137   1.034  1.00  0.00     0.091 A 
HETATM   15  C   UNL     1       2.631  -0.339   1.836  1.00  0.00     0.041 A 
HETATM   16  C   UNL     1       1.375   0.264   1.782  1.00  0.00     0.032 A 
BRANCH  14  17
HETATM   17  O   UNL     1       4.887  -0.470   1.110  1.00  0.00    -0.345 OA
BRANCH  17  18
HETATM   18  C   UNL     1       4.940  -1.857   0.784  1.00  0.00     0.214 C 
BRANCH  18  19
HETATM   19  C   UNL     1       6.301  -2.181   0.243  1.00  0.00    -0.031 A 
HETATM   20  C   UNL     1       6.647  -1.797  -1.053  1.00  0.00     0.051 A 
HETATM   21  C   UNL     1       7.912  -2.098  -1.556  1.00  0.00     0.117 A 
HETATM   22  F   UNL     1       8.244  -1.729  -2.801  1.00  0.00    -0.206 F 
HETATM   23  C   UNL     1       8.832  -2.785  -0.764  1.00  0.00     0.042 A 
HETATM   24  C   UNL     1       8.487  -3.170   0.532  1.00  0.00     0.004 A 
HETATM   25  C   UNL     1       7.221  -2.868   1.035  1.00  0.00     0.009 A 
ENDBRANCH  18  19
ENDBRANCH  17  18
ENDBRANCH  14  17
ENDBRANCH   8  10
ENDBRANCH   4   8
BRANCH   3  26
HETATM   26  C   UNL     1      -2.636   2.403  -0.330  1.00  0.00    -0.055 C 
BRANCH  26  27
HETATM   27  C   UNL     1      -3.376   1.500  -0.612  1.00  0.00    -0.054 C 
BRANCH  27  28
HETATM   28  C   UNL     1      -4.253   0.428  -0.947  1.00  0.00     0.059 A 
HETATM   29  S   UNL     1      -5.648   0.042  -0.032  1.00  0.00    -0.084 SA
HETATM   30  C   UNL     1      -6.042  -1.255  -1.078  1.00  0.00     0.012 A 
HETATM   31  C   UNL     1      -5.129  -1.389  -2.101  1.00  0.00     0.018 A 
HETATM   32  C   UNL     1      -4.093  -0.414  -2.025  1.00  0.00     0.029 A 
BRANCH  30  33
HETATM   33  C   UNL     1      -7.271  -2.081  -0.805  1.00  0.00     0.318 C 
BRANCH  33  34
HETATM   34  N   UNL     1      -7.064  -3.014   0.292  1.00  0.00     0.093 N 
HETATM   35  C   UNL     1      -8.250  -3.823   0.569  1.00  0.00     0.273 C 
HETATM   36  C   UNL     1      -7.703  -4.948   1.435  1.00  0.00     0.032 C 
HETATM   37  C   UNL     1      -6.224  -5.048   1.071  1.00  0.00     0.032 C 
HETATM   38  C   UNL     1      -6.002  -3.980   0.011  1.00  0.00     0.273 C 
ENDBRANCH  33  34
ENDBRANCH  30  33
ENDBRANCH  27  28
ENDBRANCH  26  27
ENDBRANCH   3  26
TORSDOF 10
