REMARK  11 active torsions:
REMARK  status: ('A' for Active; 'I' for Inactive)
REMARK    1  A    between atoms: S_2  and  C_13 
REMARK    2  A    between atoms: O_8  and  C_29 
REMARK    3  A    between atoms: O_8  and  C_33 
REMARK    4  A    between atoms: N_9  and  C_14 
REMARK    5  A    between atoms: N_9  and  C_15 
REMARK    6  A    between atoms: N_10  and  C_25 
REMARK    7  A    between atoms: N_10  and  C_26 
REMARK    8  A    between atoms: C_13  and  C_14 
REMARK    9  A    between atoms: C_15  and  C_16 
REMARK   10  A    between atoms: C_17  and  C_18 
REMARK   11  A    between atoms: C_33  and  C_34 
ROOT
HETATM    1  S   UNL     1      -2.255   1.564   0.338  1.00  0.00    -0.081 SA
HETATM    2  N   UNL     1      -0.676   4.947  -0.734  1.00  0.00    -0.241 NA
HETATM    3  N   UNL     1       1.208   3.500  -0.270  1.00  0.00    -0.223 NA
HETATM    4  C   UNL     1      -3.457   2.721  -0.033  1.00  0.00     0.042 A 
HETATM    5  C   UNL     1      -0.988   2.668  -0.010  1.00  0.00     0.080 A 
HETATM    6  C   UNL     1      -1.489   3.908  -0.405  1.00  0.00     0.080 A 
HETATM    7  C   UNL     1      -2.916   3.928  -0.415  1.00  0.00     0.055 A 
HETATM    8  C   UNL     1       0.388   2.481   0.052  1.00  0.00     0.149 A 
HETATM    9  C   UNL     1       0.633   4.659  -0.639  1.00  0.00     0.236 A 
ENDROOT
BRANCH   8  10
HETATM   10  N   UNL     1       0.938   1.247   0.446  1.00  0.00    -0.340 N 
HETATM   11  H   UNL     1       0.245   0.590   0.795  1.00  0.00     0.167 HD
BRANCH  10  12
HETATM   12  C   UNL     1       2.266   0.794   0.593  1.00  0.00     0.035 A 
HETATM   13  C   UNL     1       3.277   1.326  -0.208  1.00  0.00     0.056 A 
HETATM   14  C   UNL     1       4.590   0.878  -0.063  1.00  0.00     0.069 A 
HETATM   15 CL   UNL     1       5.820   1.552  -1.067  1.00  0.00    -0.081 Cl
HETATM   16  C   UNL     1       4.892  -0.100   0.884  1.00  0.00     0.091 A 
HETATM   17  C   UNL     1       3.881  -0.631   1.686  1.00  0.00     0.041 A 
HETATM   18  C   UNL     1       2.568  -0.184   1.540  1.00  0.00     0.032 A 
BRANCH  16  19
HETATM   19  O   UNL     1       6.166  -0.556   1.049  1.00  0.00    -0.345 OA
BRANCH  19  20
HETATM   20  C   UNL     1       6.388  -1.948   0.834  1.00  0.00     0.214 C 
BRANCH  20  21
HETATM   21  C   UNL     1       7.799  -2.154   0.366  1.00  0.00    -0.031 A 
HETATM   22  C   UNL     1       8.153  -1.829  -0.943  1.00  0.00     0.051 A 
HETATM   23  C   UNL     1       9.465  -2.020  -1.378  1.00  0.00     0.117 A 
HETATM   24  F   UNL     1       9.806  -1.708  -2.636  1.00  0.00    -0.206 F 
HETATM   25  C   UNL     1      10.421  -2.536  -0.504  1.00  0.00     0.042 A 
HETATM   26  C   UNL     1      10.067  -2.861   0.805  1.00  0.00     0.004 A 
HETATM   27  C   UNL     1       8.755  -2.670   1.240  1.00  0.00     0.009 A 
ENDBRANCH  20  21
ENDBRANCH  19  20
ENDBRANCH  16  19
ENDBRANCH  10  12
ENDBRANCH   8  10
BRANCH   4  28
HETATM   28  C   UNL     1      -4.834   2.392   0.067  1.00  0.00     0.093 A 
HETATM   29  O   UNL     1      -5.257   1.161   0.456  1.00  0.00    -0.312 OA
HETATM   30  C   UNL     1      -6.615   1.193   0.440  1.00  0.00     0.081 A 
HETATM   31  C   UNL     1      -7.064   2.432   0.045  1.00  0.00     0.037 A 
HETATM   32  C   UNL     1      -5.907   3.211  -0.197  1.00  0.00     0.041 A 
BRANCH  30  33
HETATM   33  C   UNL     1      -7.300  -0.047   0.830  1.00  0.00     0.334 C 
BRANCH  33  34
HETATM   34  N   UNL     1      -7.281  -1.075  -0.224  1.00  0.00     0.090 N 
HETATM   35  H   UNL     1      -6.314  -1.310  -0.447  1.00  0.00     0.316 HD
BRANCH  34  36
HETATM   36  C   UNL     1      -7.980  -2.267   0.220  1.00  0.00     0.284 C 
BRANCH  36  37
HETATM   37  C   UNL     1      -7.931  -3.353  -0.841  1.00  0.00     0.169 C 
BRANCH  37  38
HETATM   38  S   UNL     1      -8.758  -4.816  -0.297  1.00  0.00     0.142 S 
HETATM   39  O   UNL     1      -7.985  -5.398   0.787  1.00  0.00    -0.228 OA
HETATM   40  O   UNL     1     -10.165  -4.502  -0.118  1.00  0.00    -0.228 OA
HETATM   41  C   UNL     1      -8.625  -5.906  -1.696  1.00  0.00     0.161 C 
ENDBRANCH  37  38
ENDBRANCH  36  37
ENDBRANCH  34  36
ENDBRANCH  33  34
ENDBRANCH  30  33
ENDBRANCH   4  28
TORSDOF 11
