REMARK  12 active torsions:
REMARK  status: ('A' for Active; 'I' for Inactive)
REMARK    1  A    between atoms: O_3  and  C_19 
REMARK    2  A    between atoms: O_3  and  C_24 
REMARK    3  A    between atoms: O_5  and  N_14 
REMARK    4  A    between atoms: N_7  and  C_15 
REMARK    5  A    between atoms: N_10  and  C_27 
REMARK    6  A    between atoms: N_10  and  C_29 
REMARK    7  A    between atoms: N_11  and  C_20 
REMARK       I    between atoms: N_11  and  C_31 
REMARK       I    between atoms: N_14  and  C_28 
REMARK    8  A    between atoms: C_15  and  C_16 
REMARK    9  A    between atoms: C_16  and  C_17 
REMARK   10  A    between atoms: C_17  and  C_28 
REMARK   11  A    between atoms: C_21  and  C_24 
REMARK   12  A    between atoms: C_31  and  C_37 
ROOT
HETATM    1  N   UNL     1       0.007  -1.783   3.452  1.00  0.00    -0.241 NA
HETATM    2  N   UNL     1       2.150  -1.664   2.356  1.00  0.00    -0.224 NA
HETATM    3  C   UNL     1       0.111  -1.696   1.058  1.00  0.00     0.041 A 
HETATM    4  C   UNL     1      -2.665  -1.797   0.948  1.00  0.00     0.098 A 
HETATM    5  C   UNL     1      -1.937  -1.728  -0.235  1.00  0.00     0.069 A 
HETATM    6  C   UNL     1      -0.613  -1.765   2.259  1.00  0.00     0.075 A 
HETATM    7  C   UNL     1      -0.548  -1.678  -0.184  1.00  0.00     0.050 A 
HETATM    8  C   UNL     1      -2.002  -1.814   2.179  1.00  0.00     0.071 A 
HETATM    9  C   UNL     1       1.497  -1.648   1.178  1.00  0.00     0.142 A 
HETATM   10  C   UNL     1       1.355  -1.731   3.436  1.00  0.00     0.236 A 
ENDROOT
BRANCH   4  11
HETATM   11  O   UNL     1      -4.027  -1.849   0.931  1.00  0.00    -0.343 OA
BRANCH  11  12
HETATM   12  C   UNL     1      -4.723  -0.797   1.596  1.00  0.00     0.238 C 
BRANCH  12  13
HETATM   13  C   UNL     1      -4.378   0.508   0.943  1.00  0.00     0.093 A 
HETATM   14  N   UNL     1      -4.646   0.735  -0.379  1.00  0.00    -0.161 NA
HETATM   15  N   UNL     1      -4.238   1.965  -0.673  1.00  0.00     0.004 NA
HETATM   16  N   UNL     1      -3.724   2.494   0.449  1.00  0.00    -0.283 N 
HETATM   17  C   UNL     1      -3.788   1.620   1.490  1.00  0.00     0.138 A 
BRANCH  16  18
HETATM   18  C   UNL     1      -3.195   3.834   0.456  1.00  0.00     0.146 C 
BRANCH  18  19
HETATM   19  C   UNL     1      -1.779   3.948  -0.126  1.00  0.00     0.031 C 
BRANCH  19  20
HETATM   20  C   UNL     1      -0.745   3.042   0.545  1.00  0.00     0.106 C 
BRANCH  20  21
HETATM   21  C   UNL     1       0.635   3.121  -0.083  1.00  0.00     0.240 C 
HETATM   22  O   UNL     1       1.507   3.894   0.307  1.00  0.00    -0.271 OA
HETATM   23  N   UNL     1       0.791   2.203  -1.093  1.00  0.00    -0.237 N 
HETATM   24  H   UNL     1       0.121   1.496  -1.374  1.00  0.00     0.197 HD
BRANCH  23  25
HETATM   25  O   UNL     1       2.052   2.173  -1.704  1.00  0.00    -0.287 OA
HETATM   26  H   UNL     1       2.128   1.224  -1.900  1.00  0.00     0.244 HD
ENDBRANCH  23  25
ENDBRANCH  20  21
ENDBRANCH  19  20
ENDBRANCH  18  19
ENDBRANCH  16  18
ENDBRANCH  12  13
ENDBRANCH  11  12
ENDBRANCH   4  11
BRANCH   5  27
HETATM   27  N   UNL     1      -2.583  -1.711  -1.473  1.00  0.00    -0.321 N 
HETATM   28  C   UNL     1      -2.005  -1.646  -2.747  1.00  0.00     0.245 C 
HETATM   29  O   UNL     1      -0.810  -1.591  -3.015  1.00  0.00    -0.268 OA
HETATM   30  H   UNL     1      -3.599  -1.750  -1.421  1.00  0.00     0.169 HD
BRANCH  28  31
HETATM   31  C   UNL     1      -3.040  -1.648  -3.821  1.00  0.00     0.064 C 
HETATM   32  C   UNL     1      -2.684  -1.591  -5.108  1.00  0.00     0.017 C 
ENDBRANCH  28  31
ENDBRANCH   5  27
BRANCH   9  33
HETATM   33  N   UNL     1       2.295  -1.577   0.009  1.00  0.00    -0.340 N 
HETATM   34  H   UNL     1       2.005  -2.239  -0.706  1.00  0.00     0.167 HD
BRANCH  33  35
HETATM   35  C   UNL     1       3.550  -1.002  -0.248  1.00  0.00     0.035 A 
HETATM   36  C   UNL     1       3.961   0.124   0.465  1.00  0.00     0.056 A 
HETATM   37  C   UNL     1       5.207   0.695   0.209  1.00  0.00     0.074 A 
HETATM   38 CL   UNL     1       5.709   2.085   1.092  1.00  0.00    -0.081 Cl
HETATM   39  C   UNL     1       6.043   0.140  -0.760  1.00  0.00     0.138 A 
HETATM   40  F   UNL     1       7.244   0.677  -1.017  1.00  0.00    -0.204 F 
HETATM   41  C   UNL     1       5.632  -0.986  -1.474  1.00  0.00     0.046 A 
HETATM   42  C   UNL     1       4.385  -1.557  -1.218  1.00  0.00     0.032 A 
ENDBRANCH  33  35
ENDBRANCH   9  33
TORSDOF 12
