REMARK  12 active torsions:
REMARK  status: ('A' for Active; 'I' for Inactive)
REMARK    1  A    between atoms: O_3  and  C_13 
REMARK    2  A    between atoms: O_3  and  C_18 
REMARK    3  A    between atoms: O_4  and  C_19 
REMARK    4  A    between atoms: O_4  and  C_20 
REMARK    5  A    between atoms: N_6  and  C_12 
REMARK       I    between atoms: N_6  and  C_24 
REMARK    6  A    between atoms: N_7  and  C_17 
REMARK    7  A    between atoms: N_7  and  C_21 
REMARK    8  A    between atoms: N_10  and  C_25 
REMARK    9  A    between atoms: C_18  and  C_19 
REMARK   10  A    between atoms: C_20  and  C_22 
REMARK   11  A    between atoms: C_24  and  C_26 
REMARK   12  A    between atoms: C_25  and  C_27 
ROOT
HETATM    1  N   UNL     1       2.323  -3.906   0.176  1.00  0.00    -0.241 NA
HETATM    2  N   UNL     1       3.859  -2.124   0.700  1.00  0.00    -0.224 NA
HETATM    3  C   UNL     1       1.554  -1.635   0.160  1.00  0.00     0.041 A 
HETATM    4  C   UNL     1      -0.757  -1.154  -0.382  1.00  0.00     0.069 A 
HETATM    5  C   UNL     1      -0.987  -2.516  -0.545  1.00  0.00     0.097 A 
HETATM    6  C   UNL     1       1.335  -3.013  -0.002  1.00  0.00     0.075 A 
HETATM    7  C   UNL     1       0.513  -0.710  -0.029  1.00  0.00     0.050 A 
HETATM    8  C   UNL     1       0.054  -3.430  -0.355  1.00  0.00     0.071 A 
HETATM    9  C   UNL     1       2.847  -1.257   0.513  1.00  0.00     0.142 A 
HETATM   10  C   UNL     1       3.531  -3.414   0.517  1.00  0.00     0.236 A 
ENDROOT
BRANCH   4  11
HETATM   11  N   UNL     1      -1.786  -0.228  -0.568  1.00  0.00    -0.321 N 
HETATM   12  C   UNL     1      -1.724   1.166  -0.444  1.00  0.00     0.245 C 
HETATM   13  O   UNL     1      -0.743   1.839  -0.146  1.00  0.00    -0.268 OA
HETATM   14  H   UNL     1      -2.683  -0.637  -0.822  1.00  0.00     0.169 HD
BRANCH  12  15
HETATM   15  C   UNL     1      -3.045   1.803  -0.725  1.00  0.00     0.072 C 
HETATM   16  C   UNL     1      -3.187   3.134  -0.657  1.00  0.00     0.008 C 
BRANCH  16  17
HETATM   17  C   UNL     1      -4.482   3.837  -0.936  1.00  0.00     0.299 C 
BRANCH  17  18
HETATM   18  N   UNL     1      -4.910   4.644   0.201  1.00  0.00     0.083 N 
HETATM   19  C   UNL     1      -5.548   3.805   1.217  1.00  0.00     0.309 C 
HETATM   20  C   UNL     1      -5.826   5.700  -0.233  1.00  0.00     0.309 C 
ENDBRANCH  17  18
ENDBRANCH  16  17
ENDBRANCH  12  15
ENDBRANCH   4  11
BRANCH   5  21
HETATM   21  O   UNL     1      -2.220  -2.982  -0.891  1.00  0.00    -0.347 OA
BRANCH  21  22
HETATM   22  C   UNL     1      -2.850  -3.881   0.018  1.00  0.00     0.201 C 
BRANCH  22  23
HETATM   23  C   UNL     1      -4.354  -3.700  -0.068  1.00  0.00     0.194 C 
BRANCH  23  24
HETATM   24  O   UNL     1      -4.682  -2.364   0.293  1.00  0.00    -0.389 OA
BRANCH  24  25
HETATM   25  C   UNL     1      -6.080  -2.131   0.209  1.00  0.00     0.167 C 
BRANCH  25  26
HETATM   26  C   UNL     1      -6.363  -0.690   0.607  1.00  0.00     0.022 C 
HETATM   27  C   UNL     1      -7.847  -0.371   0.554  1.00  0.00     0.007 C 
ENDBRANCH  25  26
ENDBRANCH  24  25
ENDBRANCH  23  24
ENDBRANCH  22  23
ENDBRANCH  21  22
ENDBRANCH   5  21
BRANCH   9  28
HETATM   28  N   UNL     1       3.144   0.117   0.694  1.00  0.00    -0.340 N 
HETATM   29  H   UNL     1       2.447   0.600   1.255  1.00  0.00     0.167 HD
BRANCH  28  30
HETATM   30  C   UNL     1       4.318   0.864   0.511  1.00  0.00     0.035 A 
HETATM   31  C   UNL     1       5.245   0.481  -0.458  1.00  0.00     0.056 A 
HETATM   32  C   UNL     1       6.412   1.223  -0.640  1.00  0.00     0.074 A 
HETATM   33 CL   UNL     1       7.553   0.746  -1.838  1.00  0.00    -0.081 Cl
HETATM   34  C   UNL     1       6.652   2.349   0.148  1.00  0.00     0.138 A 
HETATM   35  F   UNL     1       7.769   3.072  -0.014  1.00  0.00    -0.204 F 
HETATM   36  C   UNL     1       5.724   2.733   1.117  1.00  0.00     0.046 A 
HETATM   37  C   UNL     1       4.557   1.990   1.298  1.00  0.00     0.032 A 
ENDBRANCH  28  30
ENDBRANCH   9  28
TORSDOF 12
