REMARK  8 active torsions:
REMARK  status: ('A' for Active; 'I' for Inactive)
REMARK    1  A    between atoms: O_3  and  C_9 
REMARK    2  A    between atoms: O_3  and  C_10 
REMARK    3  A    between atoms: N_4  and  C_8 
REMARK    4  A    between atoms: N_4  and  C_18 
REMARK    5  A    between atoms: N_7  and  C_26 
REMARK    6  A    between atoms: C_9  and  C_11 
REMARK    7  A    between atoms: C_21  and  C_28 
REMARK    8  A    between atoms: C_23  and  C_32 
ROOT
HETATM    1  N   UNL     1      -1.310   0.867  -0.597  1.00  0.00    -0.340 N 
HETATM    2  H   UNL     1      -1.924   0.268  -1.143  1.00  0.00     0.167 HD
ENDROOT
BRANCH   1   3
HETATM    3  C   UNL     1      -0.024   0.335  -0.416  1.00  0.00     0.035 A 
HETATM    4  C   UNL     1       0.812   0.840   0.586  1.00  0.00     0.056 A 
HETATM    5  C   UNL     1       2.090   0.311   0.766  1.00  0.00     0.069 A 
HETATM    6 CL   UNL     1       3.095   0.957   2.011  1.00  0.00    -0.081 Cl
HETATM    7  C   UNL     1       2.539  -0.724  -0.055  1.00  0.00     0.091 A 
HETATM    8  C   UNL     1       1.709  -1.230  -1.055  1.00  0.00     0.041 A 
HETATM    9  C   UNL     1       0.431  -0.702  -1.235  1.00  0.00     0.032 A 
BRANCH   7  10
HETATM   10  O   UNL     1       3.783  -1.260   0.099  1.00  0.00    -0.345 OA
BRANCH  10  11
HETATM   11  C   UNL     1       4.665  -1.177  -1.018  1.00  0.00     0.214 C 
BRANCH  11  12
HETATM   12  C   UNL     1       6.081  -1.134  -0.522  1.00  0.00    -0.031 A 
HETATM   13  C   UNL     1       6.677   0.091  -0.247  1.00  0.00     0.051 A 
HETATM   14  C   UNL     1       7.993   0.131   0.215  1.00  0.00     0.117 A 
HETATM   15  F   UNL     1       8.574   1.308   0.482  1.00  0.00    -0.206 F 
HETATM   16  C   UNL     1       8.704  -1.055   0.398  1.00  0.00     0.042 A 
HETATM   17  C   UNL     1       8.099  -2.281   0.119  1.00  0.00     0.004 A 
HETATM   18  C   UNL     1       6.783  -2.320  -0.342  1.00  0.00     0.009 A 
ENDBRANCH  11  12
ENDBRANCH  10  11
ENDBRANCH   7  10
ENDBRANCH   1   3
BRANCH   1  19
HETATM   19  C   UNL     1      -1.852   2.158  -0.374  1.00  0.00     0.149 A 
HETATM   20  N   UNL     1      -1.023   3.214  -0.506  1.00  0.00    -0.223 NA
HETATM   21  C   UNL     1      -1.592   4.414  -0.282  1.00  0.00     0.235 A 
HETATM   22  N   UNL     1      -2.875   4.652   0.050  1.00  0.00    -0.253 NA
HETATM   23  C   UNL     1      -3.647   3.551   0.165  1.00  0.00     0.142 A 
HETATM   24  C   UNL     1      -3.184   2.269  -0.038  1.00  0.00     0.081 A 
BRANCH  24  25
HETATM   25  C   UNL     1      -4.062   1.148   0.101  1.00  0.00    -0.056 C 
HETATM   26  C   UNL     1      -4.801   0.206   0.218  1.00  0.00    -0.061 C 
BRANCH  26  27
HETATM   27  C   UNL     1      -5.678  -0.913   0.357  1.00  0.00     0.020 A 
HETATM   28  C   UNL     1      -6.635  -1.176  -0.623  1.00  0.00     0.049 A 
HETATM   29  C   UNL     1      -7.491  -2.268  -0.488  1.00  0.00     0.027 A 
HETATM   30  C   UNL     1      -7.391  -3.099   0.629  1.00  0.00     0.029 A 
HETATM   31  C   UNL     1      -6.434  -2.836   1.609  1.00  0.00     0.004 A 
HETATM   32  C   UNL     1      -5.577  -1.743   1.473  1.00  0.00     0.021 A 
BRANCH  29  33
HETATM   33  N   UNL     1      -8.459  -2.534  -1.479  1.00  0.00    -0.399 N 
HETATM   34  H   UNL     1      -8.532  -1.933  -2.289  1.00  0.00     0.156 HD
HETATM   35  H   UNL     1      -9.079  -3.327  -1.381  1.00  0.00     0.156 HD
ENDBRANCH  29  33
ENDBRANCH  26  27
ENDBRANCH  24  25
ENDBRANCH   1  19
TORSDOF 8
