REMARK  8 active torsions:
REMARK  status: ('A' for Active; 'I' for Inactive)
REMARK    1  A    between atoms: S_3  and  C_33 
REMARK    2  A    between atoms: S_3  and  C_36 
REMARK    3  A    between atoms: O_5  and  C_13 
REMARK    4  A    between atoms: O_5  and  C_18 
REMARK       I    between atoms: N_9  and  C_18 
REMARK    5  A    between atoms: N_10  and  C_28 
REMARK    6  A    between atoms: N_10  and  C_29 
REMARK    7  A    between atoms: C_15  and  C_17 
REMARK    8  A    between atoms: C_23  and  C_24 
ROOT
HETATM    1  S   UNL     1      -0.501  -0.871  -0.709  1.00  0.00    -0.075 SA
HETATM    2  N   UNL     1       1.389  -3.793   1.016  1.00  0.00    -0.241 NA
HETATM    3  N   UNL     1       3.042  -2.043   0.768  1.00  0.00    -0.223 NA
HETATM    4  C   UNL     1      -1.530  -2.211  -0.452  1.00  0.00     0.061 A 
HETATM    5  C   UNL     1      -0.878  -3.257   0.159  1.00  0.00     0.061 A 
HETATM    6  C   UNL     1       0.839  -1.678  -0.002  1.00  0.00     0.081 A 
HETATM    7  C   UNL     1       0.493  -2.960   0.423  1.00  0.00     0.081 A 
HETATM    8  C   UNL     1       2.142  -1.230   0.182  1.00  0.00     0.149 A 
HETATM    9  C   UNL     1       2.616  -3.263   1.146  1.00  0.00     0.236 A 
ENDROOT
BRANCH   4  10
HETATM   10  C   UNL     1      -2.909  -2.220  -0.836  1.00  0.00    -0.057 C 
HETATM   11  C   UNL     1      -4.066  -2.226  -1.157  1.00  0.00    -0.065 C 
BRANCH  11  12
HETATM   12  C   UNL     1      -5.483  -2.232  -1.551  1.00  0.00     0.301 C 
HETATM   13  N   UNL     1      -6.320  -2.988  -0.617  1.00  0.00     0.102 N 
HETATM   14  C   UNL     1      -6.598  -2.113   0.524  1.00  0.00     0.303 C 
HETATM   15  H   UNL     1      -5.877  -3.856  -0.323  1.00  0.00     0.317 HD
HETATM   16  C   UNL     1      -6.568  -0.697  -0.039  1.00  0.00     0.164 C 
HETATM   17  C   UNL     1      -6.103  -0.843  -1.486  1.00  0.00     0.083 C 
BRANCH  16  18
HETATM   18  O   UNL     1      -7.873  -0.110   0.012  1.00  0.00    -0.297 OA
BRANCH  18  19
HETATM   19  C   UNL     1      -7.917   1.256   0.108  1.00  0.00     0.363 C 
HETATM   20  O   UNL     1      -6.909   1.959   0.150  1.00  0.00    -0.238 OA
HETATM   21  N   UNL     1      -9.222   1.749   0.151  1.00  0.00    -0.324 N 
HETATM   22  C   UNL     1     -10.422   0.911   0.100  1.00  0.00     0.154 C 
HETATM   23  C   UNL     1      -9.477   3.188   0.120  1.00  0.00     0.154 C 
HETATM   24  C   UNL     1     -11.435   1.382   1.136  1.00  0.00     0.187 C 
HETATM   25  O   UNL     1     -11.709   2.776   0.968  1.00  0.00    -0.388 OA
HETATM   26  C   UNL     1     -10.528   3.559   1.157  1.00  0.00     0.187 C 
ENDBRANCH  18  19
ENDBRANCH  16  18
ENDBRANCH  11  12
ENDBRANCH   4  10
BRANCH   8  27
HETATM   27  N   UNL     1       2.536   0.055  -0.235  1.00  0.00    -0.340 N 
HETATM   28  H   UNL     1       1.828   0.535  -0.783  1.00  0.00     0.167 HD
BRANCH  27  29
HETATM   29  C   UNL     1       3.764   0.746  -0.172  1.00  0.00     0.035 A 
HETATM   30  C   UNL     1       4.084   1.691  -1.147  1.00  0.00     0.054 A 
HETATM   31  C   UNL     1       5.298   2.374  -1.085  1.00  0.00     0.053 A 
HETATM   32 CL   UNL     1       5.627   3.532  -2.328  1.00  0.00    -0.083 Cl
HETATM   33  C   UNL     1       6.193   2.113  -0.047  1.00  0.00     0.027 A 
HETATM   34  C   UNL     1       5.874   1.168   0.928  1.00  0.00     0.023 A 
HETATM   35  C   UNL     1       4.659   0.484   0.865  1.00  0.00     0.031 A 
BRANCH  33  36
HETATM   36  S   UNL     1       7.772   2.945   0.108  1.00  0.00    -0.089 SA
BRANCH  36  37
HETATM   37  C   UNL     1       8.897   1.562   0.027  1.00  0.00     0.008 A 
HETATM   38  C   UNL     1       9.756   1.298   1.095  1.00  0.00     0.061 A 
HETATM   39  C   UNL     1      10.635   0.217   1.032  1.00  0.00     0.117 A 
HETATM   40  F   UNL     1      11.460  -0.037   2.056  1.00  0.00    -0.206 F 
HETATM   41  C   UNL     1      10.656  -0.601  -0.099  1.00  0.00     0.042 A 
HETATM   42  C   UNL     1       9.797  -0.337  -1.166  1.00  0.00     0.004 A 
HETATM   43  C   UNL     1       8.918   0.744  -1.103  1.00  0.00     0.019 A 
ENDBRANCH  36  37
ENDBRANCH  33  36
ENDBRANCH  27  29
ENDBRANCH   8  27
TORSDOF 8
