REMARK  7 active torsions:
REMARK  status: ('A' for Active; 'I' for Inactive)
REMARK    1  A    between atoms: O_2  and  C_12 
REMARK    2  A    between atoms: N_3  and  C_14 
REMARK    3  A    between atoms: N_6  and  C_20 
REMARK    4  A    between atoms: N_6  and  C_22 
REMARK    5  A    between atoms: N_9  and  C_29 
REMARK    6  A    between atoms: C_14  and  C_17 
REMARK    7  A    between atoms: C_29  and  C_31 
ROOT
HETATM    1  N   UNL     1      -5.288   1.530   0.859  1.00  0.00    -0.240 N 
HETATM    2  N   UNL     1      -5.055   2.656   1.575  1.00  0.00    -0.161 NA
HETATM    3  N   UNL     1      -2.846   2.636   0.612  1.00  0.00    -0.220 NA
HETATM    4  C   UNL     1      -4.937  -0.176  -0.526  1.00  0.00     0.004 A 
HETATM    5  C   UNL     1      -4.362   0.942   0.037  1.00  0.00     0.112 A 
HETATM    6  C   UNL     1      -6.260  -0.264  -0.022  1.00  0.00     0.030 A 
HETATM    7  C   UNL     1      -3.057   1.547  -0.085  1.00  0.00     0.159 A 
HETATM    8  C   UNL     1      -6.450   0.803   0.832  1.00  0.00     0.119 A 
HETATM    9  C   UNL     1      -3.856   3.140   1.411  1.00  0.00     0.258 A 
ENDROOT
BRANCH   7  10
HETATM   10  N   UNL     1      -2.059   1.040  -0.881  1.00  0.00    -0.339 N 
HETATM   11  H   UNL     1      -2.315   0.510  -1.706  1.00  0.00     0.167 HD
BRANCH  10  12
HETATM   12  C   UNL     1      -0.687   1.144  -0.665  1.00  0.00     0.034 A 
HETATM   13  C   UNL     1       0.183   1.170  -1.762  1.00  0.00     0.044 A 
HETATM   14  C   UNL     1       1.563   1.276  -1.522  1.00  0.00     0.014 A 
HETATM   15  C   UNL     1       2.022   1.351  -0.212  1.00  0.00     0.065 A 
HETATM   16  C   UNL     1       2.734   1.334  -2.307  1.00  0.00     0.152 A 
HETATM   17  N   UNL     1       3.384   1.444  -0.312  1.00  0.00    -0.265 N 
HETATM   18  C   UNL     1       1.172   1.327   0.896  1.00  0.00     0.034 A 
HETATM   19  N   UNL     1       3.845   1.437  -1.574  1.00  0.00    -0.183 NA
HETATM   20  C   UNL     1      -0.199   1.221   0.640  1.00  0.00     0.032 A 
BRANCH  17  21
HETATM   21  C   UNL     1       4.325   1.546   0.779  1.00  0.00     0.190 C 
BRANCH  21  22
HETATM   22  C   UNL     1       5.365   0.454   0.775  1.00  0.00    -0.035 A 
HETATM   23  C   UNL     1       6.654   0.720   0.312  1.00  0.00     0.051 A 
HETATM   24  C   UNL     1       7.616  -0.291   0.308  1.00  0.00     0.117 A 
HETATM   25  F   UNL     1       8.853  -0.035  -0.137  1.00  0.00    -0.206 F 
HETATM   26  C   UNL     1       7.289  -1.567   0.767  1.00  0.00     0.042 A 
HETATM   27  C   UNL     1       6.000  -1.833   1.230  1.00  0.00     0.004 A 
HETATM   28  C   UNL     1       5.039  -0.823   1.234  1.00  0.00     0.009 A 
ENDBRANCH  21  22
ENDBRANCH  17  21
ENDBRANCH  10  12
ENDBRANCH   7  10
BRANCH   4  29
HETATM   29  C   UNL     1      -4.318  -1.148  -1.495  1.00  0.00     0.313 C 
BRANCH  29  30
HETATM   30  N   UNL     1      -3.112  -1.771  -0.947  1.00  0.00     0.097 N 
HETATM   31  C   UNL     1      -3.448  -2.756   0.083  1.00  0.00     0.306 C 
HETATM   32  C   UNL     1      -2.374  -2.793   1.178  1.00  0.00     0.174 C 
HETATM   33  C   UNL     1      -1.032  -3.398   0.760  1.00  0.00     0.302 C 
HETATM   34  N   UNL     1      -0.422  -2.788  -0.416  1.00  0.00     0.087 N 
HETATM   35  C   UNL     1      -1.096  -3.190  -1.646  1.00  0.00     0.299 C 
HETATM   36  H   UNL     1       0.546  -3.109  -0.466  1.00  0.00     0.316 HD
HETATM   37  C   UNL     1      -2.294  -2.315  -2.039  1.00  0.00     0.302 C 
BRANCH  32  38
HETATM   38  O   UNL     1      -2.894  -3.569   2.261  1.00  0.00    -0.392 OA
HETATM   39  H   UNL     1      -2.238  -3.548   2.978  1.00  0.00     0.210 HD
ENDBRANCH  32  38
ENDBRANCH  29  30
ENDBRANCH   4  29
TORSDOF 7
