REMARK  5 active torsions:
REMARK  status: ('A' for Active; 'I' for Inactive)
REMARK    1  A    between atoms: N_5  and  C_14 
REMARK       I    between atoms: N_6  and  C_21 
REMARK    2  A    between atoms: N_8  and  C_26 
REMARK    3  A    between atoms: N_8  and  C_28 
REMARK    4  A    between atoms: C_14  and  C_15 
REMARK    5  A    between atoms: C_19  and  C_21 
ROOT
HETATM    1  O   UNL     1      -0.843  -4.869   0.626  1.00  0.00    -0.347 OA
HETATM    2  O   UNL     1      -1.928  -0.336  -1.411  1.00  0.00    -0.268 OA
HETATM    3  N   UNL     1      -1.871  -2.263  -0.060  1.00  0.00    -0.310 N 
HETATM    4  N   UNL     1       3.640  -3.445   0.315  1.00  0.00    -0.241 NA
HETATM    5  N   UNL     1       4.216  -1.188  -0.291  1.00  0.00    -0.224 NA
HETATM    6  C   UNL     1      -0.456  -2.536  -0.016  1.00  0.00     0.072 A 
HETATM    7  C   UNL     1      -2.715  -3.355   0.453  1.00  0.00     0.159 C 
HETATM    8  C   UNL     1      -0.006  -3.817   0.342  1.00  0.00     0.098 A 
HETATM    9  C   UNL     1      -2.139  -4.700   0.062  1.00  0.00     0.196 C 
HETATM   10  C   UNL     1      -2.406  -1.061  -0.540  1.00  0.00     0.247 C 
HETATM   11  C   UNL     1       0.523  -1.563  -0.258  1.00  0.00     0.050 A 
HETATM   12  C   UNL     1       1.898  -1.866  -0.154  1.00  0.00     0.041 A 
HETATM   13  C   UNL     1       1.362  -4.106   0.459  1.00  0.00     0.071 A 
HETATM   14  C   UNL     1       2.333  -3.147   0.207  1.00  0.00     0.075 A 
HETATM   15  C   UNL     1       2.899  -0.927  -0.388  1.00  0.00     0.142 A 
HETATM   16  C   UNL     1       4.511  -2.449   0.059  1.00  0.00     0.236 A 
ENDROOT
BRANCH  10  17
HETATM   17  C   UNL     1      -3.688  -0.626   0.062  1.00  0.00     0.072 C 
HETATM   18  C   UNL     1      -4.539   0.093  -0.680  1.00  0.00     0.008 C 
BRANCH  18  19
HETATM   19  C   UNL     1      -5.864   0.577  -0.173  1.00  0.00     0.300 C 
BRANCH  19  20
HETATM   20  N   UNL     1      -5.958   2.028  -0.221  1.00  0.00     0.091 N 
HETATM   21  C   UNL     1      -4.956   2.680   0.622  1.00  0.00     0.273 C 
HETATM   22  C   UNL     1      -5.474   4.107   0.725  1.00  0.00     0.032 C 
HETATM   23  C   UNL     1      -6.979   4.002   0.497  1.00  0.00     0.032 C 
HETATM   24  C   UNL     1      -7.245   2.521   0.270  1.00  0.00     0.273 C 
ENDBRANCH  19  20
ENDBRANCH  18  19
ENDBRANCH  10  17
BRANCH  15  25
HETATM   25  N   UNL     1       2.542   0.394  -0.757  1.00  0.00    -0.340 N 
HETATM   26  H   UNL     1       1.821   0.422  -1.473  1.00  0.00     0.167 HD
BRANCH  25  27
HETATM   27  C   UNL     1       3.161   1.636  -0.545  1.00  0.00     0.035 A 
HETATM   28  C   UNL     1       3.943   1.843   0.591  1.00  0.00     0.056 A 
HETATM   29  C   UNL     1       4.557   3.077   0.800  1.00  0.00     0.074 A 
HETATM   30 CL   UNL     1       5.523   3.326   2.204  1.00  0.00    -0.081 Cl
HETATM   31  C   UNL     1       4.389   4.106  -0.127  1.00  0.00     0.138 A 
HETATM   32  F   UNL     1       4.971   5.299   0.062  1.00  0.00    -0.204 F 
HETATM   33  C   UNL     1       3.606   3.900  -1.263  1.00  0.00     0.046 A 
HETATM   34  C   UNL     1       2.992   2.665  -1.472  1.00  0.00     0.032 A 
ENDBRANCH  25  27
ENDBRANCH  15  25
TORSDOF 5
