REMARK  9 active torsions:
REMARK  status: ('A' for Active; 'I' for Inactive)
REMARK    1  A    between atoms: O_4  and  C_10 
REMARK    2  A    between atoms: O_4  and  C_15 
REMARK    3  A    between atoms: O_5  and  C_26 
REMARK    4  A    between atoms: O_5  and  C_30 
REMARK    5  A    between atoms: N_7  and  C_22 
REMARK    6  A    between atoms: N_7  and  C_23 
REMARK    7  A    between atoms: C_12  and  C_14 
REMARK    8  A    between atoms: C_17  and  C_18 
REMARK    9  A    between atoms: C_30  and  C_31 
ROOT
HETATM    1  S   UNL     1       2.868  -0.715   0.132  1.00  0.00    -0.075 SA
HETATM    2  N   UNL     1       2.057  -4.513   0.070  1.00  0.00    -0.241 NA
HETATM    3  N   UNL     1      -0.094  -3.415  -0.089  1.00  0.00    -0.223 NA
HETATM    4  C   UNL     1       4.291  -1.656   0.237  1.00  0.00     0.061 A 
HETATM    5  C   UNL     1       4.023  -3.006   0.217  1.00  0.00     0.061 A 
HETATM    6  C   UNL     1       1.870  -2.109   0.058  1.00  0.00     0.081 A 
HETATM    7  C   UNL     1       2.627  -3.279   0.113  1.00  0.00     0.081 A 
HETATM    8  C   UNL     1       0.487  -2.199  -0.045  1.00  0.00     0.149 A 
HETATM    9  C   UNL     1       0.718  -4.487  -0.029  1.00  0.00     0.236 A 
ENDROOT
BRANCH   8  10
HETATM   10  N   UNL     1      -0.317  -1.045  -0.105  1.00  0.00    -0.340 N 
HETATM   11  H   UNL     1       0.219  -0.187  -0.200  1.00  0.00     0.167 HD
BRANCH  10  12
HETATM   12  C   UNL     1      -1.710  -0.854  -0.209  1.00  0.00     0.035 A 
HETATM   13  C   UNL     1      -2.213   0.277  -0.852  1.00  0.00     0.056 A 
HETATM   14  C   UNL     1      -3.592   0.466  -0.954  1.00  0.00     0.069 A 
HETATM   15 CL   UNL     1      -4.187   1.875  -1.751  1.00  0.00    -0.081 Cl
HETATM   16  C   UNL     1      -4.467  -0.476  -0.413  1.00  0.00     0.091 A 
HETATM   17  C   UNL     1      -3.963  -1.607   0.230  1.00  0.00     0.041 A 
HETATM   18  C   UNL     1      -2.585  -1.796   0.332  1.00  0.00     0.032 A 
BRANCH  16  19
HETATM   19  O   UNL     1      -5.818  -0.319  -0.500  1.00  0.00    -0.345 OA
BRANCH  19  20
HETATM   20  C   UNL     1      -6.541  -0.246   0.727  1.00  0.00     0.214 C 
BRANCH  20  21
HETATM   21  C   UNL     1      -7.774   0.584   0.521  1.00  0.00    -0.031 A 
HETATM   22  C   UNL     1      -7.671   1.972   0.423  1.00  0.00     0.051 A 
HETATM   23  C   UNL     1      -8.817   2.744   0.233  1.00  0.00     0.117 A 
HETATM   24  F   UNL     1      -8.719   4.077   0.140  1.00  0.00    -0.206 F 
HETATM   25  C   UNL     1     -10.065   2.129   0.139  1.00  0.00     0.042 A 
HETATM   26  C   UNL     1     -10.168   0.741   0.236  1.00  0.00     0.004 A 
HETATM   27  C   UNL     1      -9.022  -0.031   0.427  1.00  0.00     0.009 A 
ENDBRANCH  20  21
ENDBRANCH  19  20
ENDBRANCH  16  19
ENDBRANCH  10  12
ENDBRANCH   8  10
BRANCH   4  28
HETATM   28  C   UNL     1       5.599  -1.084   0.335  1.00  0.00    -0.057 C 
HETATM   29  C   UNL     1       6.697  -0.604   0.417  1.00  0.00    -0.065 C 
BRANCH  29  30
HETATM   30  C   UNL     1       8.041  -0.015   0.518  1.00  0.00     0.301 C 
HETATM   31  N   UNL     1       8.691   0.124  -0.787  1.00  0.00     0.102 N 
HETATM   32  C   UNL     1       8.159   1.338  -1.411  1.00  0.00     0.303 C 
HETATM   33  H   UNL     1       8.543  -0.693  -1.377  1.00  0.00     0.317 HD
HETATM   34  C   UNL     1       7.796   2.258  -0.251  1.00  0.00     0.152 C 
HETATM   35  C   UNL     1       8.002   1.424   1.011  1.00  0.00     0.082 C 
BRANCH  34  36
HETATM   36  O   UNL     1       8.642   3.397  -0.238  1.00  0.00    -0.384 OA
BRANCH  36  37
HETATM   37  C   UNL     1       8.107   4.434   0.573  1.00  0.00     0.163 C 
HETATM   38  C   UNL     1       9.050   5.617   0.548  1.00  0.00     0.033 C 
ENDBRANCH  36  37
ENDBRANCH  34  36
ENDBRANCH  29  30
ENDBRANCH   4  28
TORSDOF 9
