REMARK  10 active torsions:
REMARK  status: ('A' for Active; 'I' for Inactive)
REMARK    1  A    between atoms: O_2  and  N_10 
REMARK    2  A    between atoms: O_2  and  C_30 
REMARK    3  A    between atoms: O_3  and  C_31 
REMARK    4  A    between atoms: N_4  and  C_13 
REMARK    5  A    between atoms: N_6  and  C_16 
REMARK    6  A    between atoms: N_6  and  C_22 
REMARK    7  A    between atoms: N_9  and  C_27 
REMARK    8  A    between atoms: C_13  and  C_18 
REMARK    9  A    between atoms: C_25  and  C_28 
REMARK   10  A    between atoms: C_30  and  C_31 
ROOT
HETATM    1  N   UNL     1      -2.065  -1.002   0.738  1.00  0.00    -0.340 N 
HETATM    2  H   UNL     1      -2.492  -0.344   1.385  1.00  0.00     0.167 HD
ENDROOT
BRANCH   1   3
HETATM    3  C   UNL     1      -0.658  -1.058   0.849  1.00  0.00     0.034 A 
HETATM    4  C   UNL     1      -0.037  -0.550   1.997  1.00  0.00     0.044 A 
HETATM    5  C   UNL     1       1.363  -0.615   2.087  1.00  0.00     0.014 A 
HETATM    6  C   UNL     1       2.088  -1.176   1.042  1.00  0.00     0.065 A 
HETATM    7  C   UNL     1       2.344  -0.236   3.028  1.00  0.00     0.152 A 
HETATM    8  N   UNL     1       3.399  -1.092   1.426  1.00  0.00    -0.265 N 
HETATM    9  C   UNL     1       1.489  -1.688  -0.112  1.00  0.00     0.034 A 
HETATM   10  N   UNL     1       3.585  -0.524   2.629  1.00  0.00    -0.183 NA
HETATM   11  C   UNL     1       0.094  -1.616  -0.187  1.00  0.00     0.032 A 
BRANCH   8  12
HETATM   12  C   UNL     1       4.548  -1.544   0.675  1.00  0.00     0.190 C 
BRANCH  12  13
HETATM   13  C   UNL     1       5.082  -0.457  -0.218  1.00  0.00    -0.035 A 
HETATM   14  C   UNL     1       4.603  -0.328  -1.522  1.00  0.00     0.051 A 
HETATM   15  C   UNL     1       5.099   0.679  -2.350  1.00  0.00     0.117 A 
HETATM   16  F   UNL     1       4.639   0.803  -3.602  1.00  0.00    -0.206 F 
HETATM   17  C   UNL     1       6.073   1.556  -1.875  1.00  0.00     0.042 A 
HETATM   18  C   UNL     1       6.553   1.427  -0.572  1.00  0.00     0.004 A 
HETATM   19  C   UNL     1       6.057   0.420   0.257  1.00  0.00     0.009 A 
ENDBRANCH  12  13
ENDBRANCH   8  12
ENDBRANCH   1   3
BRANCH   1  20
HETATM   20  C   UNL     1      -3.001  -1.823   0.082  1.00  0.00     0.145 A 
HETATM   21  N   UNL     1      -2.704  -3.132  -0.050  1.00  0.00    -0.223 NA
HETATM   22  C   UNL     1      -3.638  -3.865  -0.686  1.00  0.00     0.237 A 
HETATM   23  N   UNL     1      -4.808  -3.426  -1.188  1.00  0.00    -0.224 NA
HETATM   24  C   UNL     1      -5.040  -2.108  -1.021  1.00  0.00     0.138 A 
HETATM   25  C   UNL     1      -4.165  -1.249  -0.389  1.00  0.00     0.075 A 
BRANCH  24  26
HETATM   26  N   UNL     1      -6.255  -1.582  -1.527  1.00  0.00    -0.383 N 
HETATM   27  H   UNL     1      -6.254  -0.642  -1.902  1.00  0.00     0.157 HD
HETATM   28  H   UNL     1      -6.878  -2.249  -1.967  1.00  0.00     0.157 HD
ENDBRANCH  24  26
BRANCH  25  29
HETATM   29  C   UNL     1      -4.451   0.172  -0.226  1.00  0.00     0.165 C 
HETATM   30  N   UNL     1      -3.517   1.076  -0.180  1.00  0.00    -0.145 NA
BRANCH  30  31
HETATM   31  O   UNL     1      -4.107   2.337  -0.019  1.00  0.00    -0.255 OA
BRANCH  31  32
HETATM   32  C   UNL     1      -3.071   3.306   0.028  1.00  0.00     0.230 C 
BRANCH  32  33
HETATM   33  C   UNL     1      -3.686   4.681   0.203  1.00  0.00     0.195 C 
BRANCH  33  34
HETATM   34  O   UNL     1      -2.646   5.650   0.271  1.00  0.00    -0.394 OA
HETATM   35  C   UNL     1      -3.168   6.964   0.413  1.00  0.00     0.201 C 
ENDBRANCH  33  34
ENDBRANCH  32  33
ENDBRANCH  31  32
ENDBRANCH  30  31
ENDBRANCH  25  29
ENDBRANCH   1  20
TORSDOF 10
