REMARK  6 active torsions:
REMARK  status: ('A' for Active; 'I' for Inactive)
REMARK    1  A    between atoms: O_1  and  C_14 
REMARK    2  A    between atoms: O_1  and  C_23 
REMARK    3  A    between atoms: O_5  and  N_10 
REMARK       I    between atoms: N_7  and  C_16 
REMARK    4  A    between atoms: N_8  and  C_28 
REMARK       I    between atoms: N_9  and  C_23 
REMARK       I    between atoms: N_10  and  C_17 
REMARK    5  A    between atoms: C_11  and  C_16 
REMARK    6  A    between atoms: C_12  and  C_17 
ROOT
HETATM    1  N   UNL     1      -1.280  -1.210  -1.250  1.00  0.00     0.101 N 
HETATM    2  C   UNL     1      -0.541  -0.053  -0.710  1.00  0.00     0.326 C 
HETATM    3  C   UNL     1      -1.477   1.060  -0.202  1.00  0.00     0.125 C 
HETATM    4  C   UNL     1      -2.507   1.465  -1.258  1.00  0.00     0.051 C 
HETATM    5  C   UNL     1      -3.229   0.245  -1.812  1.00  0.00     0.162 C 
HETATM    6  C   UNL     1      -2.235  -0.808  -2.300  1.00  0.00     0.305 C 
HETATM    7  C   UNL     1      -0.378  -2.233  -1.796  1.00  0.00     0.311 C 
ENDROOT
BRANCH   2   8
HETATM    8  C   UNL     1       0.251  -0.545   0.470  1.00  0.00     0.254 C 
HETATM    9  O   UNL     1      -0.338  -1.037   1.436  1.00  0.00    -0.271 OA
HETATM   10  N   UNL     1       1.636  -0.402   0.387  1.00  0.00    -0.347 N 
HETATM   11  C   UNL     1       2.475  -0.861   1.491  1.00  0.00     0.145 C 
HETATM   12  C   UNL     1       2.333   0.183  -0.761  1.00  0.00     0.145 C 
HETATM   13  C   UNL     1       3.827  -1.379   1.004  1.00  0.00     0.143 C 
HETATM   14  N   UNL     1       4.526  -0.350   0.228  1.00  0.00    -0.378 N 
HETATM   15  C   UNL     1       3.727   0.701  -0.406  1.00  0.00     0.143 C 
BRANCH  14  16
HETATM   16  C   UNL     1       5.915  -0.356   0.130  1.00  0.00     0.030 A 
HETATM   17  C   UNL     1       6.611   0.847   0.011  1.00  0.00     0.029 A 
HETATM   18  C   UNL     1       8.002   0.842  -0.088  1.00  0.00     0.002 A 
HETATM   19  C   UNL     1       8.698  -0.367  -0.067  1.00  0.00     0.000 A 
HETATM   20  C   UNL     1       8.002  -1.570   0.053  1.00  0.00     0.002 A 
HETATM   21  C   UNL     1       6.611  -1.564   0.151  1.00  0.00     0.029 A 
ENDBRANCH  14  16
ENDBRANCH   2   8
BRANCH   3  22
HETATM   22  C   UNL     1      -0.682   2.285   0.151  1.00  0.00     0.247 C 
HETATM   23  O   UNL     1      -0.000   2.870  -0.688  1.00  0.00    -0.271 OA
HETATM   24  N   UNL     1      -0.820   2.654   1.463  1.00  0.00    -0.237 N 
HETATM   25  H   UNL     1      -1.471   2.268   2.136  1.00  0.00     0.197 HD
BRANCH  24  26
HETATM   26  O   UNL     1      -0.112   3.799   1.851  1.00  0.00    -0.287 OA
HETATM   27  H   UNL     1       0.694   3.389   2.209  1.00  0.00     0.244 HD
ENDBRANCH  24  26
ENDBRANCH   3  22
BRANCH   5  28
HETATM   28  O   UNL     1      -4.069  -0.337  -0.808  1.00  0.00    -0.297 OA
BRANCH  28  29
HETATM   29  C   UNL     1      -5.348   0.148  -0.743  1.00  0.00     0.363 C 
HETATM   30  O   UNL     1      -5.786   1.026  -1.482  1.00  0.00    -0.238 OA
HETATM   31  N   UNL     1      -6.086  -0.471   0.251  1.00  0.00    -0.328 N 
HETATM   32  C   UNL     1      -7.476  -0.142   0.527  1.00  0.00     0.128 C 
HETATM   33  C   UNL     1      -5.603  -1.522   1.139  1.00  0.00     0.128 C 
HETATM   34  C   UNL     1      -7.955  -1.265   1.435  1.00  0.00     0.022 C 
HETATM   35  C   UNL     1      -6.691  -1.651   2.195  1.00  0.00     0.022 C 
ENDBRANCH  28  29
ENDBRANCH   5  28
TORSDOF 6
