REMARK  7 active torsions:
REMARK  status: ('A' for Active; 'I' for Inactive)
REMARK    1  A    between atoms: O_2  and  C_17 
REMARK    2  A    between atoms: O_2  and  C_26 
REMARK    3  A    between atoms: O_4  and  C_22 
REMARK    4  A    between atoms: N_5  and  C_14 
REMARK    5  A    between atoms: N_7  and  C_16 
REMARK    6  A    between atoms: N_7  and  C_24 
REMARK    7  A    between atoms: C_14  and  C_22 
ROOT
HETATM    1 CL   UNL     1      -1.662   3.070  -2.312  1.00  0.00    -0.081 Cl
HETATM    2  C   UNL     1       0.973   0.350  -1.040  1.00  0.00     0.035 A 
HETATM    3  C   UNL     1      -1.802   0.612  -1.155  1.00  0.00     0.098 A 
HETATM    4  C   UNL     1       0.404   1.502  -1.581  1.00  0.00     0.056 A 
HETATM    5  C   UNL     1       0.155  -0.672  -0.556  1.00  0.00     0.032 A 
HETATM    6  C   UNL     1      -0.984   1.634  -1.639  1.00  0.00     0.070 A 
HETATM    7  C   UNL     1      -1.232  -0.540  -0.614  1.00  0.00     0.041 A 
ENDROOT
BRANCH   2   8
HETATM    8  N   UNL     1       2.376   0.216  -0.982  1.00  0.00    -0.339 N 
HETATM    9  H   UNL     1       2.842   1.055  -1.287  1.00  0.00     0.167 HD
BRANCH   8  10
HETATM   10  C   UNL     1       3.218  -0.806  -0.503  1.00  0.00     0.159 A 
HETATM   11  N   UNL     1       2.804  -2.091  -0.547  1.00  0.00    -0.222 NA
HETATM   12  C   UNL     1       3.651  -3.034  -0.076  1.00  0.00     0.236 A 
HETATM   13  N   UNL     1       4.884  -2.873   0.446  1.00  0.00    -0.240 NA
HETATM   14  C   UNL     1       5.276  -1.576   0.478  1.00  0.00     0.090 A 
HETATM   15  C   UNL     1       4.473  -0.538   0.016  1.00  0.00     0.110 A 
HETATM   16  C   UNL     1       6.486  -1.006   0.945  1.00  0.00     0.051 A 
HETATM   17  N   UNL     1       5.171   0.628   0.195  1.00  0.00    -0.350 N 
HETATM   18  C   UNL     1       6.392   0.356   0.759  1.00  0.00     0.094 A 
BRANCH  17  19
HETATM   19  C   UNL     1       4.724   1.962  -0.145  1.00  0.00     0.154 C 
BRANCH  19  20
HETATM   20  C   UNL     1       3.732   2.518   0.871  1.00  0.00     0.184 C 
BRANCH  20  21
HETATM   21  O   UNL     1       4.328   2.539   2.162  1.00  0.00    -0.399 OA
HETATM   22  H   UNL     1       3.672   2.914   2.773  1.00  0.00     0.209 HD
ENDBRANCH  20  21
ENDBRANCH  19  20
ENDBRANCH  17  19
ENDBRANCH   8  10
ENDBRANCH   2   8
BRANCH   3  23
HETATM   23  O   UNL     1      -3.185   0.715  -1.198  1.00  0.00    -0.308 OA
BRANCH  23  24
HETATM   24  C   UNL     1      -3.862   0.664  -0.026  1.00  0.00     0.092 A 
HETATM   25  C   UNL     1      -4.807  -0.308   0.239  1.00  0.00     0.073 A 
HETATM   26  C   UNL     1      -5.510  -0.370   1.443  1.00  0.00    -0.022 A 
HETATM   27  C   UNL     1      -5.259  -1.414  -0.610  1.00  0.00     0.255 A 
HETATM   28  C   UNL     1      -6.454  -1.522   1.434  1.00  0.00     0.162 A 
HETATM   29  C   UNL     1      -5.277   0.564   2.435  1.00  0.00     0.010 A 
HETATM   30  N   UNL     1      -6.220  -2.098   0.124  1.00  0.00    -0.352 N 
HETATM   31  H   UNL     1      -6.708  -2.918  -0.223  1.00  0.00     0.163 HD
HETATM   32  C   UNL     1      -4.324   1.559   2.193  1.00  0.00     0.003 A 
HETATM   33  C   UNL     1      -3.624   1.609   0.974  1.00  0.00     0.038 A 
HETATM   34  O   UNL     1      -4.848  -1.651  -1.731  1.00  0.00    -0.268 OA
ENDBRANCH  23  24
ENDBRANCH   3  23
TORSDOF 7
