REMARK  11 active torsions:
REMARK  status: ('A' for Active; 'I' for Inactive)
REMARK    1  A    between atoms: O_2  and  C_11 
REMARK    2  A    between atoms: O_2  and  C_13 
REMARK    3  A    between atoms: O_4  and  C_22 
REMARK    4  A    between atoms: O_5  and  C_28 
REMARK    5  A    between atoms: O_5  and  C_31 
REMARK       I    between atoms: N_6  and  C_14 
REMARK    6  A    between atoms: N_6  and  C_15 
REMARK    7  A    between atoms: N_7  and  C_17 
REMARK    8  A    between atoms: N_7  and  C_24 
REMARK    9  A    between atoms: C_11  and  C_14 
REMARK   10  A    between atoms: C_15  and  C_22 
REMARK   11  A    between atoms: C_31  and  C_32 
ROOT
HETATM    1  N   UNL     1       3.547  -4.450   0.439  1.00  0.00    -0.241 NA
HETATM    2  N   UNL     1       1.363  -3.719  -0.272  1.00  0.00    -0.223 NA
HETATM    3  C   UNL     1       3.176  -2.134  -0.064  1.00  0.00     0.072 A 
HETATM    4  C   UNL     1       3.670  -0.822  -0.162  1.00  0.00     0.086 A 
HETATM    5  C   UNL     1       4.008  -3.190   0.343  1.00  0.00     0.075 A 
HETATM    6  C   UNL     1       1.857  -2.470  -0.358  1.00  0.00     0.144 A 
HETATM    7  C   UNL     1       5.000  -0.553   0.146  1.00  0.00     0.038 A 
HETATM    8  C   UNL     1       5.335  -2.893   0.645  1.00  0.00     0.033 A 
HETATM    9  C   UNL     1       5.833  -1.591   0.550  1.00  0.00     0.005 A 
HETATM   10  C   UNL     1       2.249  -4.646   0.127  1.00  0.00     0.236 A 
ENDROOT
BRANCH   6  11
HETATM   11  N   UNL     1       0.936  -1.483  -0.777  1.00  0.00    -0.340 N 
HETATM   12  H   UNL     1       1.331  -0.833  -1.451  1.00  0.00     0.167 HD
BRANCH  11  13
HETATM   13  C   UNL     1      -0.457  -1.358  -0.626  1.00  0.00     0.035 A 
HETATM   14  C   UNL     1      -1.206  -0.688  -1.594  1.00  0.00     0.056 A 
HETATM   15  C   UNL     1      -2.587  -0.565  -1.444  1.00  0.00     0.069 A 
HETATM   16 CL   UNL     1      -3.489   0.270  -2.655  1.00  0.00    -0.081 Cl
HETATM   17  C   UNL     1      -3.219  -1.111  -0.328  1.00  0.00     0.091 A 
HETATM   18  C   UNL     1      -2.470  -1.781   0.640  1.00  0.00     0.041 A 
HETATM   19  C   UNL     1      -1.089  -1.905   0.490  1.00  0.00     0.032 A 
BRANCH  17  20
HETATM   20  O   UNL     1      -4.568  -1.006  -0.155  1.00  0.00    -0.344 OA
BRANCH  20  21
HETATM   21  C   UNL     1      -5.019  -0.330   1.017  1.00  0.00     0.235 C 
BRANCH  21  22
HETATM   22  C   UNL     1      -6.351   0.301   0.737  1.00  0.00     0.058 A 
HETATM   23  N   UNL     1      -7.434  -0.308   1.270  1.00  0.00    -0.263 NA
HETATM   24  C   UNL     1      -8.631   0.266   1.016  1.00  0.00     0.117 A 
HETATM   25  C   UNL     1      -8.796   1.413   0.257  1.00  0.00     0.019 A 
HETATM   26  C   UNL     1      -7.658   2.011  -0.275  1.00  0.00     0.003 A 
HETATM   27  C   UNL     1      -6.408   1.450  -0.035  1.00  0.00     0.029 A 
ENDBRANCH  21  22
ENDBRANCH  20  21
ENDBRANCH  17  20
ENDBRANCH  11  13
ENDBRANCH   6  11
BRANCH   4  28
HETATM   28  O   UNL     1       2.907   0.247  -0.553  1.00  0.00    -0.336 OA
BRANCH  28  29
HETATM   29  C   UNL     1       2.773   1.313   0.381  1.00  0.00     0.216 C 
HETATM   30  C   UNL     1       1.298   1.486   0.711  1.00  0.00     0.050 C 
BRANCH  29  31
HETATM   31  C   UNL     1       3.361   2.577  -0.242  1.00  0.00     0.248 C 
HETATM   32  O   UNL     1       3.255   2.757  -1.460  1.00  0.00    -0.270 OA
HETATM   33  N   UNL     1       3.997   3.484   0.610  1.00  0.00    -0.352 N 
HETATM   34  C   UNL     1       4.117   3.262   2.047  1.00  0.00     0.152 C 
BRANCH  33  35
HETATM   35  C   UNL     1       4.595   4.728   0.130  1.00  0.00     0.151 C 
BRANCH  35  36
HETATM   36  C   UNL     1       3.597   5.871   0.152  1.00  0.00     0.183 C 
BRANCH  36  37
HETATM   37  O   UNL     1       2.510   5.566  -0.712  1.00  0.00    -0.399 OA
HETATM   38  H   UNL     1       1.896   6.319  -0.675  1.00  0.00     0.209 HD
ENDBRANCH  36  37
ENDBRANCH  35  36
ENDBRANCH  33  35
ENDBRANCH  29  31
ENDBRANCH  28  29
ENDBRANCH   4  28
TORSDOF 11
