REMARK  9 active torsions:
REMARK  status: ('A' for Active; 'I' for Inactive)
REMARK    1  A    between atoms: O_4  and  C_26 
REMARK    2  A    between atoms: O_4  and  C_31 
REMARK    3  A    between atoms: N_5  and  C_15 
REMARK       I    between atoms: N_6  and  C_18 
REMARK    4  A    between atoms: N_6  and  C_19 
REMARK    5  A    between atoms: N_7  and  C_22 
REMARK    6  A    between atoms: N_7  and  C_24 
REMARK    7  A    between atoms: C_15  and  C_16 
REMARK    8  A    between atoms: C_17  and  C_18 
REMARK    9  A    between atoms: C_31  and  C_32 
ROOT
HETATM    1  N   UNL     1      -4.361   3.573  -0.942  1.00  0.00    -0.241 NA
HETATM    2  N   UNL     1       0.491   4.337   0.086  1.00  0.00    -0.224 NA
HETATM    3  N   UNL     1      -1.309   5.583  -0.923  1.00  0.00    -0.240 NA
HETATM    4  C   UNL     1      -3.900   2.451  -0.354  1.00  0.00     0.131 A 
HETATM    5  C   UNL     1      -1.708   3.356  -0.120  1.00  0.00     0.044 A 
HETATM    6  C   UNL     1      -2.595   2.289   0.073  1.00  0.00     0.068 A 
HETATM    7  C   UNL     1      -0.371   3.318   0.266  1.00  0.00     0.142 A 
HETATM    8  C   UNL     1      -2.139   4.542  -0.725  1.00  0.00     0.089 A 
HETATM    9  C   UNL     1      -3.469   4.580  -1.109  1.00  0.00     0.151 A 
HETATM   10  C   UNL     1      -0.037   5.422  -0.505  1.00  0.00     0.236 A 
ENDROOT
BRANCH   7  11
HETATM   11  N   UNL     1       0.139   2.150   0.886  1.00  0.00    -0.340 N 
HETATM   12  H   UNL     1      -0.473   1.791   1.614  1.00  0.00     0.167 HD
BRANCH  11  13
HETATM   13  C   UNL     1       1.416   1.567   0.901  1.00  0.00     0.035 A 
HETATM   14  C   UNL     1       2.269   1.724  -0.192  1.00  0.00     0.056 A 
HETATM   15  C   UNL     1       3.537   1.145  -0.175  1.00  0.00     0.069 A 
HETATM   16 CL   UNL     1       4.571   1.353  -1.541  1.00  0.00    -0.081 Cl
HETATM   17  C   UNL     1       3.954   0.407   0.933  1.00  0.00     0.091 A 
HETATM   18  C   UNL     1       3.101   0.250   2.026  1.00  0.00     0.041 A 
HETATM   19  C   UNL     1       1.832   0.829   2.010  1.00  0.00     0.032 A 
BRANCH  17  20
HETATM   20  O   UNL     1       5.188  -0.169   0.977  1.00  0.00    -0.345 OA
BRANCH  20  21
HETATM   21  C   UNL     1       5.236  -1.586   1.124  1.00  0.00     0.214 C 
BRANCH  21  22
HETATM   22  C   UNL     1       6.487  -2.104   0.477  1.00  0.00    -0.031 A 
HETATM   23  C   UNL     1       6.573  -2.180  -0.914  1.00  0.00     0.051 A 
HETATM   24  C   UNL     1       7.736  -2.661  -1.515  1.00  0.00     0.117 A 
HETATM   25  F   UNL     1       7.818  -2.735  -2.850  1.00  0.00    -0.206 F 
HETATM   26  C   UNL     1       8.813  -3.067  -0.727  1.00  0.00     0.042 A 
HETATM   27  C   UNL     1       8.726  -2.992   0.664  1.00  0.00     0.004 A 
HETATM   28  C   UNL     1       7.564  -2.510   1.265  1.00  0.00     0.009 A 
ENDBRANCH  21  22
ENDBRANCH  20  21
ENDBRANCH  17  20
ENDBRANCH  11  13
ENDBRANCH   7  11
BRANCH   4  29
HETATM   29  N   UNL     1      -4.795   1.371  -0.159  1.00  0.00    -0.308 N 
HETATM   30  C   UNL     1      -4.517   0.141   0.423  1.00  0.00     0.246 C 
HETATM   31  O   UNL     1      -3.449  -0.249   0.879  1.00  0.00    -0.268 OA
HETATM   32  H   UNL     1      -5.738   1.554  -0.495  1.00  0.00     0.170 HD
BRANCH  30  33
HETATM   33  C   UNL     1      -5.732  -0.727   0.444  1.00  0.00     0.072 C 
HETATM   34  C   UNL     1      -5.678  -1.961   0.965  1.00  0.00     0.008 C 
BRANCH  34  35
HETATM   35  C   UNL     1      -6.863  -2.879   1.025  1.00  0.00     0.300 C 
BRANCH  35  36
HETATM   36  N   UNL     1      -6.599  -4.137   0.342  1.00  0.00     0.091 N 
HETATM   37  C   UNL     1      -6.320  -3.951  -1.082  1.00  0.00     0.273 C 
HETATM   38  C   UNL     1      -6.465  -5.358  -1.643  1.00  0.00     0.032 C 
HETATM   39  C   UNL     1      -7.403  -6.077  -0.679  1.00  0.00     0.032 C 
HETATM   40  C   UNL     1      -7.742  -5.048   0.389  1.00  0.00     0.273 C 
ENDBRANCH  35  36
ENDBRANCH  34  35
ENDBRANCH  30  33
ENDBRANCH   4  29
TORSDOF 9
