REMARK  6 active torsions:
REMARK  status: ('A' for Active; 'I' for Inactive)
REMARK    1  A    between atoms: N_3  and  C_11 
REMARK    2  A    between atoms: N_6  and  C_20 
REMARK    3  A    between atoms: N_6  and  C_22 
REMARK    4  A    between atoms: N_7  and  C_26 
REMARK    5  A    between atoms: C_11  and  C_14 
REMARK    6  A    between atoms: C_26  and  C_31 
ROOT
HETATM    1  N   UNL     1      -4.397   2.629   0.203  1.00  0.00    -0.240 N 
HETATM    2  N   UNL     1      -4.090   3.858   0.685  1.00  0.00    -0.161 NA
HETATM    3  N   UNL     1      -1.833   3.416  -0.033  1.00  0.00    -0.220 NA
HETATM    4  C   UNL     1      -4.149   0.650  -0.744  1.00  0.00     0.004 A 
HETATM    5  C   UNL     1      -3.486   1.790  -0.384  1.00  0.00     0.112 A 
HETATM    6  C   UNL     1      -5.499   0.788  -0.371  1.00  0.00     0.030 A 
HETATM    7  C   UNL     1      -2.115   2.227  -0.503  1.00  0.00     0.159 A 
HETATM    8  C   UNL     1      -5.628   2.028   0.217  1.00  0.00     0.119 A 
HETATM    9  C   UNL     1      -2.836   4.177   0.540  1.00  0.00     0.258 A 
ENDROOT
BRANCH   7  10
HETATM   10  N   UNL     1      -1.125   1.463  -1.074  1.00  0.00    -0.339 N 
HETATM   11  H   UNL     1      -1.356   0.892  -1.879  1.00  0.00     0.167 HD
BRANCH  10  12
HETATM   12  C   UNL     1       0.230   1.482  -0.754  1.00  0.00     0.034 A 
HETATM   13  C   UNL     1       0.645   1.800   0.556  1.00  0.00     0.044 A 
HETATM   14  C   UNL     1       2.017   1.813   0.858  1.00  0.00     0.014 A 
HETATM   15  C   UNL     1       2.937   1.514  -0.140  1.00  0.00     0.065 A 
HETATM   16  C   UNL     1       2.809   2.069   1.998  1.00  0.00     0.152 A 
HETATM   17  N   UNL     1       4.164   1.611   0.459  1.00  0.00    -0.265 N 
HETATM   18  C   UNL     1       2.565   1.196  -1.448  1.00  0.00     0.034 A 
HETATM   19  N   UNL     1       4.116   1.947   1.759  1.00  0.00    -0.183 NA
HETATM   20  C   UNL     1       1.196   1.186  -1.733  1.00  0.00     0.032 A 
BRANCH  17  21
HETATM   21  C   UNL     1       5.448   1.391  -0.165  1.00  0.00     0.190 C 
BRANCH  21  22
HETATM   22  C   UNL     1       5.874  -0.048  -0.053  1.00  0.00    -0.035 A 
HETATM   23  C   UNL     1       5.518  -0.945  -1.051  1.00  0.00     0.051 A 
HETATM   24  C   UNL     1       5.913  -2.279  -0.949  1.00  0.00     0.117 A 
HETATM   25  F   UNL     1       5.576  -3.153  -1.906  1.00  0.00    -0.206 F 
HETATM   26  C   UNL     1       6.660  -2.702   0.150  1.00  0.00     0.042 A 
HETATM   27  C   UNL     1       7.012  -1.792   1.147  1.00  0.00     0.004 A 
HETATM   28  C   UNL     1       6.617  -0.459   1.045  1.00  0.00     0.009 A 
ENDBRANCH  21  22
ENDBRANCH  17  21
ENDBRANCH  10  12
ENDBRANCH   7  10
BRANCH   4  29
HETATM   29  C   UNL     1      -3.578  -0.556  -1.418  1.00  0.00     0.313 C 
BRANCH  29  30
HETATM   30  N   UNL     1      -4.075  -1.764  -0.749  1.00  0.00     0.094 N 
HETATM   31  C   UNL     1      -3.608  -2.955  -1.474  1.00  0.00     0.292 C 
HETATM   32  C   UNL     1      -4.258  -4.250  -0.991  1.00  0.00     0.152 C 
HETATM   33  N   UNL     1      -3.655  -4.762   0.224  1.00  0.00    -0.359 N 
HETATM   34  C   UNL     1      -3.698  -4.152   1.456  1.00  0.00     0.219 C 
HETATM   35  H   UNL     1      -3.201  -5.669   0.173  1.00  0.00     0.162 HD
HETATM   36  O   UNL     1      -3.219  -4.664   2.468  1.00  0.00    -0.274 OA
HETATM   37  C   UNL     1      -4.382  -2.805   1.508  1.00  0.00     0.133 C 
HETATM   38  C   UNL     1      -3.666  -1.751   0.664  1.00  0.00     0.282 C 
ENDBRANCH  29  30
ENDBRANCH   4  29
TORSDOF 6
