REMARK  13 active torsions:
REMARK  status: ('A' for Active; 'I' for Inactive)
REMARK    1  A    between atoms: O_3  and  C_21 
REMARK    2  A    between atoms: O_3  and  C_23 
REMARK    3  A    between atoms: O_5  and  N_14 
REMARK    4  A    between atoms: N_7  and  C_16 
REMARK    5  A    between atoms: N_10  and  C_24 
REMARK       I    between atoms: N_10  and  C_32 
REMARK    6  A    between atoms: N_11  and  C_29 
REMARK    7  A    between atoms: N_11  and  C_30 
REMARK       I    between atoms: N_14  and  C_28 
REMARK    8  A    between atoms: C_15  and  C_16 
REMARK    9  A    between atoms: C_15  and  C_17 
REMARK   10  A    between atoms: C_17  and  C_18 
REMARK   11  A    between atoms: C_18  and  C_28 
REMARK   12  A    between atoms: C_20  and  C_21 
REMARK   13  A    between atoms: C_32  and  C_38 
ROOT
HETATM    1  N   UNL     1       0.917   3.713  -1.221  1.00  0.00    -0.241 NA
HETATM    2  N   UNL     1       2.718   2.120  -1.385  1.00  0.00    -0.224 NA
HETATM    3  C   UNL     1       0.773   1.633  -0.035  1.00  0.00     0.041 A 
HETATM    4  C   UNL     1      -1.711   2.388   0.959  1.00  0.00     0.098 A 
HETATM    5  C   UNL     1      -1.180   1.154   1.316  1.00  0.00     0.069 A 
HETATM    6  C   UNL     1       0.247   2.882  -0.403  1.00  0.00     0.075 A 
HETATM    7  C   UNL     1       0.063   0.773   0.821  1.00  0.00     0.050 A 
HETATM    8  C   UNL     1      -0.999   3.238   0.107  1.00  0.00     0.071 A 
HETATM    9  C   UNL     1       2.020   1.313  -0.565  1.00  0.00     0.142 A 
HETATM   10  C   UNL     1       2.116   3.287  -1.668  1.00  0.00     0.236 A 
ENDROOT
BRANCH   4  11
HETATM   11  O   UNL     1      -2.929   2.792   1.430  1.00  0.00    -0.343 OA
BRANCH  11  12
HETATM   12  C   UNL     1      -3.934   3.064   0.449  1.00  0.00     0.238 C 
BRANCH  12  13
HETATM   13  C   UNL     1      -4.253   1.844  -0.304  1.00  0.00     0.093 A 
HETATM   14  N   UNL     1      -4.076   1.777  -1.658  1.00  0.00    -0.161 NA
HETATM   15  N   UNL     1      -4.441   0.564  -2.058  1.00  0.00     0.004 NA
HETATM   16  N   UNL     1      -4.838  -0.113  -0.968  1.00  0.00    -0.283 N 
HETATM   17  C   UNL     1      -4.739   0.646   0.157  1.00  0.00     0.138 A 
BRANCH  16  18
HETATM   18  C   UNL     1      -5.315  -1.539  -1.079  1.00  0.00     0.146 C 
BRANCH  18  19
HETATM   19  C   UNL     1      -4.182  -2.555  -1.268  1.00  0.00     0.022 C 
BRANCH  19  20
HETATM   20  C   UNL     1      -3.166  -2.539  -0.118  1.00  0.00     0.011 C 
BRANCH  20  21
HETATM   21  C   UNL     1      -2.046  -3.558  -0.323  1.00  0.00     0.105 C 
BRANCH  21  22
HETATM   22  C   UNL     1      -1.191  -3.286  -1.549  1.00  0.00     0.240 C 
HETATM   23  O   UNL     1      -1.451  -3.731  -2.664  1.00  0.00    -0.271 OA
HETATM   24  N   UNL     1      -0.122  -2.476  -1.252  1.00  0.00    -0.237 N 
HETATM   25  H   UNL     1       0.180  -2.188  -0.329  1.00  0.00     0.197 HD
BRANCH  24  26
HETATM   26  O   UNL     1       0.715  -2.152  -2.329  1.00  0.00    -0.287 OA
HETATM   27  H   UNL     1       0.384  -1.263  -2.541  1.00  0.00     0.244 HD
ENDBRANCH  24  26
ENDBRANCH  21  22
ENDBRANCH  20  21
ENDBRANCH  19  20
ENDBRANCH  18  19
ENDBRANCH  16  18
ENDBRANCH  12  13
ENDBRANCH  11  12
ENDBRANCH   4  11
BRANCH   5  28
HETATM   28  N   UNL     1      -1.878   0.293   2.166  1.00  0.00    -0.321 N 
HETATM   29  C   UNL     1      -1.487  -0.973   2.620  1.00  0.00     0.245 C 
HETATM   30  O   UNL     1      -0.450  -1.567   2.354  1.00  0.00    -0.268 OA
HETATM   31  H   UNL     1      -2.776   0.649   2.485  1.00  0.00     0.169 HD
BRANCH  29  32
HETATM   32  C   UNL     1      -2.515  -1.575   3.518  1.00  0.00     0.064 C 
HETATM   33  C   UNL     1      -2.325  -2.784   4.055  1.00  0.00     0.017 C 
ENDBRANCH  29  32
ENDBRANCH   5  28
BRANCH   9  34
HETATM   34  N   UNL     1       2.615   0.069  -0.238  1.00  0.00    -0.340 N 
HETATM   35  H   UNL     1       1.967  -0.710  -0.314  1.00  0.00     0.167 HD
BRANCH  34  36
HETATM   36  C   UNL     1       3.954  -0.338  -0.118  1.00  0.00     0.035 A 
HETATM   37  C   UNL     1       4.928   0.577   0.281  1.00  0.00     0.056 A 
HETATM   38  C   UNL     1       6.258   0.172   0.400  1.00  0.00     0.074 A 
HETATM   39 CL   UNL     1       7.456   1.306   0.892  1.00  0.00    -0.081 Cl
HETATM   40  C   UNL     1       6.613  -1.147   0.120  1.00  0.00     0.138 A 
HETATM   41  F   UNL     1       7.886  -1.551   0.231  1.00  0.00    -0.204 F 
HETATM   42  C   UNL     1       5.638  -2.062  -0.279  1.00  0.00     0.046 A 
HETATM   43  C   UNL     1       4.309  -1.658  -0.398  1.00  0.00     0.032 A 
ENDBRANCH  34  36
ENDBRANCH   9  34
TORSDOF 13
