REMARK  7 active torsions:
REMARK  status: ('A' for Active; 'I' for Inactive)
REMARK    1  A    between atoms: C_5  and  N_6 
REMARK       I    between atoms: N_6  and  C_7 
REMARK    2  A    between atoms: C_7  and  C_9 
REMARK    3  A    between atoms: C_9  and  C_10 
REMARK    4  A    between atoms: C_9  and  N_17 
REMARK    5  A    between atoms: C_10  and  C_11 
REMARK       I    between atoms: N_17  and  C_18 
REMARK    6  A    between atoms: C_18  and  C_20 
REMARK       I    between atoms: N_23  and  C_24 
REMARK    7  A    between atoms: C_24  and  C_26 
ROOT
HETATM    1  C   UNL     1      -1.613  -0.154  -0.447  1.00  0.00     0.181 C 
ENDROOT
BRANCH   1   2
HETATM    2  C   UNL     1      -2.773   0.816  -0.253  1.00  0.00     0.245 C 
HETATM    3  N   UNL     1      -3.649   0.347   0.712  1.00  0.00    -0.325 N 
HETATM    4  H   UNL     1      -3.415  -0.507   1.142  1.00  0.00     0.169 HD
HETATM    5  O   UNL     1      -2.921   1.831  -0.929  1.00  0.00    -0.271 OA
BRANCH   3   6
HETATM    6  C   UNL     1      -4.831   0.961   1.141  1.00  0.00     0.034 A 
HETATM    7  C   UNL     1      -5.569   0.304   2.125  1.00  0.00     0.030 A 
HETATM    8  C   UNL     1      -6.756   0.859   2.598  1.00  0.00     0.009 A 
HETATM    9  C   UNL     1      -7.207   2.074   2.087  1.00  0.00    -0.062 A 
HETATM   10  C   UNL     1      -8.474   2.670   2.591  1.00  0.00     0.048 C 
HETATM   11  C   UNL     1      -6.471   2.733   1.105  1.00  0.00     0.009 A 
HETATM   12  C   UNL     1      -5.284   2.177   0.633  1.00  0.00     0.030 A 
ENDBRANCH   3   6
ENDBRANCH   1   2
BRANCH   1  13
HETATM   13  C   UNL     1      -0.991  -0.575   0.873  1.00  0.00     0.073 C 
BRANCH  13  14
HETATM   14  C   UNL     1      -0.567  -2.005   0.836  1.00  0.00    -0.056 A 
HETATM   15  C   UNL     1       0.739  -2.337   0.474  1.00  0.00     0.007 A 
HETATM   16  C   UNL     1       1.140  -3.670   0.452  1.00  0.00     0.001 A 
HETATM   17  C   UNL     1       0.238  -4.673   0.800  1.00  0.00     0.000 A 
HETATM   18  C   UNL     1      -1.063  -4.344   1.171  1.00  0.00     0.001 A 
HETATM   19  C   UNL     1      -1.465  -3.011   1.192  1.00  0.00     0.007 A 
ENDBRANCH  13  14
ENDBRANCH   1  13
BRANCH   1  20
HETATM   20  N   UNL     1      -0.643   0.351  -1.396  1.00  0.00    -0.347 N 
HETATM   21  C   UNL     1       0.273   1.322  -1.054  1.00  0.00     0.222 C 
HETATM   22  O   UNL     1       0.355   1.823   0.063  1.00  0.00    -0.273 OA
HETATM   23  H   UNL     1      -0.637  -0.010  -2.311  1.00  0.00     0.163 HD
BRANCH  21  24
HETATM   24  C   UNL     1       1.178   1.686  -2.208  1.00  0.00     0.081 C 
HETATM   25  C   UNL     1       2.178   2.760  -1.829  1.00  0.00     0.034 C 
HETATM   26  C   UNL     1       3.266   2.233  -0.914  1.00  0.00     0.126 C 
HETATM   27  N   UNL     1       3.860   1.017  -1.424  1.00  0.00    -0.350 N 
HETATM   28  C   UNL     1       5.137   0.717  -0.961  1.00  0.00     0.253 C 
HETATM   29  C   UNL     1       2.965  -0.039  -1.837  1.00  0.00     0.126 C 
HETATM   30  O   UNL     1       5.813   1.534  -0.334  1.00  0.00    -0.271 OA
HETATM   31  C   UNL     1       1.888   0.470  -2.770  1.00  0.00     0.034 C 
BRANCH  28  32
HETATM   32  C   UNL     1       5.657  -0.677  -1.320  1.00  0.00     0.311 C 
HETATM   33  C   UNL     1       7.149  -0.764  -1.068  1.00  0.00     0.047 C 
HETATM   34  C   UNL     1       7.372  -2.039  -0.292  1.00  0.00     0.033 C 
HETATM   35  C   UNL     1       6.028  -2.726  -0.251  1.00  0.00     0.271 C 
HETATM   36  N   UNL     1       5.040  -1.672  -0.431  1.00  0.00     0.097 N 
HETATM   37  H   UNL     1       4.808  -1.248   0.467  1.00  0.00     0.317 HD
ENDBRANCH  28  32
ENDBRANCH  21  24
ENDBRANCH   1  20
TORSDOF 7
