REMARK  19 active torsions:
REMARK  status: ('A' for Active; 'I' for Inactive)
REMARK    1  A    between atoms: N_1  and  C_2 
REMARK    2  A    between atoms: C_6  and  O_7 
REMARK    3  A    between atoms: C_8  and  N_9 
REMARK       I    between atoms: N_9  and  C_10 
REMARK    4  A    between atoms: C_10  and  C_12 
REMARK       I    between atoms: N_16  and  C_17 
REMARK    5  A    between atoms: C_17  and  C_19 
REMARK    6  A    between atoms: C_19  and  C_20 
REMARK    7  A    between atoms: C_19  and  N_47 
REMARK    8  A    between atoms: C_20  and  N_21 
REMARK       I    between atoms: N_21  and  C_22 
REMARK    9  A    between atoms: C_22  and  C_24 
REMARK   10  A    between atoms: C_25  and  C_26 
REMARK   11  A    between atoms: C_26  and  C_27 
REMARK   12  A    between atoms: C_26  and  N_35 
REMARK   13  A    between atoms: C_27  and  C_28 
REMARK   14  A    between atoms: C_31  and  O_32 
REMARK       I    between atoms: N_35  and  C_36 
REMARK   15  A    between atoms: C_36  and  C_38 
REMARK   16  A    between atoms: C_38  and  N_39 
REMARK   17  A    between atoms: C_38  and  C_40 
REMARK   18  A    between atoms: C_40  and  C_41 
REMARK   19  A    between atoms: N_47  and  C_48 
ROOT
HETATM    1  C   UNL     1       0.554  -0.655   2.571  1.00  0.00     0.157 C 
ENDROOT
BRANCH   1   2
HETATM    2  C   UNL     1       1.433  -1.604   1.779  1.00  0.00     0.194 C 
BRANCH   2   3
HETATM    3  C   UNL     1       2.568  -0.834   1.113  1.00  0.00     0.245 C 
HETATM    4  N   UNL     1       3.563  -0.397   1.954  1.00  0.00    -0.337 N 
HETATM    5  C   UNL     1       4.687   0.355   1.431  1.00  0.00     0.179 C 
HETATM    6  C   UNL     1       3.722  -0.753   3.346  1.00  0.00     0.127 C 
HETATM    7  C   UNL     1       5.372   0.894   2.677  1.00  0.00     0.037 C 
HETATM    8  C   UNL     1       5.014  -0.087   3.786  1.00  0.00     0.022 C 
HETATM    9  O   UNL     1       2.575  -0.552  -0.087  1.00  0.00    -0.271 OA
BRANCH   5  10
HETATM   10  C   UNL     1       5.686  -0.533   0.693  1.00  0.00     0.241 C 
HETATM   11  N   UNL     1       6.404   0.178  -0.246  1.00  0.00    -0.349 N 
HETATM   12  H   UNL     1       6.169   1.116  -0.431  1.00  0.00     0.163 HD
HETATM   13  O   UNL     1       5.885  -1.719   0.944  1.00  0.00    -0.271 OA
BRANCH  11  14
HETATM   14  C   UNL     1       7.494  -0.440  -0.960  1.00  0.00     0.150 C 
HETATM   15  C   UNL     1       8.808  -0.606  -0.181  1.00  0.00     0.253 A 
HETATM   16  C   UNL     1       9.145   0.620   0.699  1.00  0.00     0.294 A 
HETATM   17  N   UNL     1       9.959  -0.641  -1.085  1.00  0.00    -0.172 N 
HETATM   18  N   UNL     1      10.304   1.177   0.201  1.00  0.00    -0.154 N 
HETATM   19  O   UNL     1       8.504   1.030   1.660  1.00  0.00    -0.267 OA
HETATM   20  C   UNL     1      10.743   0.460  -0.870  1.00  0.00     0.701 A 
HETATM   21  H   UNL     1      10.749   1.975   0.567  1.00  0.00     0.187 HD
HETATM   22  C   UNL     1       9.779  -1.207  -2.400  1.00  0.00     0.145 C 
HETATM   23  C   UNL     1       8.701  -0.457  -3.165  1.00  0.00     0.023 C 
HETATM   24  C   UNL     1       7.698   0.267  -2.285  1.00  0.00     0.032 C 
BRANCH  15  25
HETATM   25  O   UNL     1       8.782  -1.775   0.606  1.00  0.00    -0.361 OA
HETATM   26  H   UNL     1       8.018  -1.746   1.203  1.00  0.00     0.213 HD
ENDBRANCH  15  25
BRANCH  20  27
HETATM   27  N   UNL     1      11.743   0.861  -1.571  1.00  0.00    -0.117 NA
HETATM   28  H   UNL     1      12.232   1.676  -1.312  1.00  0.00     0.206 HD
ENDBRANCH  20  27
ENDBRANCH  11  14
ENDBRANCH   5  10
ENDBRANCH   2   3
BRANCH   2  29
HETATM   29  N   UNL     1       0.696  -2.394   0.830  1.00  0.00    -0.353 N 
HETATM   30  H   UNL     1      -0.128  -2.047   0.418  1.00  0.00     0.162 HD
BRANCH  29  31
HETATM   31  C   UNL     1       1.165  -3.639   0.511  1.00  0.00     0.349 C 
HETATM   32  O   UNL     1       2.090  -4.216   1.065  1.00  0.00    -0.284 OA
ENDBRANCH  29  31
ENDBRANCH   2  29
ENDBRANCH   1   2
BRANCH   1  33
HETATM   33  N   UNL     1      -0.165   0.311   1.780  1.00  0.00    -0.355 N 
HETATM   34  C   UNL     1      -1.451   0.055   1.375  1.00  0.00     0.240 C 
HETATM   35  O   UNL     1      -2.105  -0.939   1.667  1.00  0.00    -0.269 OA
HETATM   36  H   UNL     1       0.268   1.159   1.529  1.00  0.00     0.162 HD
BRANCH  34  37
HETATM   37  C   UNL     1      -1.960   1.154   0.525  1.00  0.00     0.072 C 
HETATM   38  C   UNL     1      -3.225   1.199   0.098  1.00  0.00     0.004 C 
BRANCH  38  39
HETATM   39  C   UNL     1      -4.302   0.234   0.420  1.00  0.00     0.112 C 
BRANCH  39  40
HETATM   40  C   UNL     1      -4.673  -0.785  -0.639  1.00  0.00     0.067 C 
BRANCH  40  41
HETATM   41  C   UNL     1      -5.425  -0.302  -1.832  1.00  0.00    -0.056 A 
HETATM   42  C   UNL     1      -4.771   0.384  -2.857  1.00  0.00     0.010 A 
HETATM   43  C   UNL     1      -5.484   0.832  -3.966  1.00  0.00     0.037 A 
HETATM   44  C   UNL     1      -6.847   0.575  -4.043  1.00  0.00     0.065 A 
HETATM   45  C   UNL     1      -7.510  -0.125  -3.045  1.00  0.00     0.037 A 
HETATM   46  C   UNL     1      -6.791  -0.569  -1.938  1.00  0.00     0.010 A 
BRANCH  44  47
HETATM   47  O   UNL     1      -7.549   1.018  -5.125  1.00  0.00    -0.361 OA
HETATM   48  H   UNL     1      -7.112   1.491  -5.805  1.00  0.00     0.217 HD
ENDBRANCH  44  47
ENDBRANCH  40  41
ENDBRANCH  39  40
BRANCH  39  49
HETATM   49  N   UNL     1      -5.382   0.825   1.164  1.00  0.00    -0.351 N 
HETATM   50  C   UNL     1      -6.176   1.858   0.715  1.00  0.00     0.251 C 
HETATM   51  O   UNL     1      -6.047   2.415  -0.373  1.00  0.00    -0.271 OA
HETATM   52  H   UNL     1      -5.568   0.465   2.061  1.00  0.00     0.163 HD
BRANCH  50  53
HETATM   53  C   UNL     1      -7.253   2.279   1.691  1.00  0.00     0.313 C 
BRANCH  53  54
HETATM   54  N   UNL     1      -6.622   2.937   2.828  1.00  0.00     0.092 N 
HETATM   55  H   UNL     1      -5.991   2.283   3.292  1.00  0.00     0.313 HD
HETATM   56  H   UNL     1      -7.340   3.242   3.486  1.00  0.00     0.313 HD
ENDBRANCH  53  54
BRANCH  53  57
HETATM   57  C   UNL     1      -8.060   1.100   2.187  1.00  0.00     0.083 C 
BRANCH  57  58
HETATM   58  C   UNL     1      -9.172   0.735   1.261  1.00  0.00    -0.056 A 
HETATM   59  C   UNL     1      -9.233  -0.560   0.747  1.00  0.00     0.007 A 
HETATM   60  C   UNL     1     -10.267  -0.923  -0.112  1.00  0.00     0.001 A 
HETATM   61  C   UNL     1     -11.245   0.006  -0.456  1.00  0.00     0.000 A 
HETATM   62  C   UNL     1     -11.195   1.296   0.066  1.00  0.00     0.001 A 
HETATM   63  C   UNL     1     -10.162   1.658   0.927  1.00  0.00     0.007 A 
ENDBRANCH  57  58
ENDBRANCH  53  57
ENDBRANCH  50  53
ENDBRANCH  39  49
ENDBRANCH  38  39
ENDBRANCH  34  37
ENDBRANCH   1  33
TORSDOF 19
