REMARK  8 active torsions:
REMARK  status: ('A' for Active; 'I' for Inactive)
REMARK    1  A    between atoms: O_2  and  C_3 
REMARK    2  A    between atoms: C_3  and  C_5 
REMARK    3  A    between atoms: C_5  and  C_6 
REMARK    4  A    between atoms: C_5  and  N_13 
REMARK    5  A    between atoms: C_6  and  C_7 
REMARK       I    between atoms: N_13  and  C_14 
REMARK    6  A    between atoms: C_14  and  C_16 
REMARK       I    between atoms: N_18  and  C_19 
REMARK       I    between atoms: C_19  and  N_21 
REMARK    7  A    between atoms: N_21  and  C_22 
REMARK       I    between atoms: N_30  and  C_31 
REMARK    8  A    between atoms: C_31  and  C_33 
ROOT
HETATM    1  C   UNL     1       0.024   0.327   1.218  1.00  0.00     0.197 C 
HETATM    2  C   UNL     1      -1.216  -0.357   1.780  1.00  0.00     0.162 C 
HETATM    3  N   UNL     1      -2.291  -0.550   0.822  1.00  0.00    -0.330 N 
HETATM    4  C   UNL     1      -3.477  -1.102   1.282  1.00  0.00     0.323 C 
HETATM    5  O   UNL     1      -3.660  -1.314   2.479  1.00  0.00    -0.247 OA
HETATM    6  N   UNL     1      -4.389  -1.362   0.272  1.00  0.00    -0.309 N 
HETATM    7  C   UNL     1      -1.988  -0.435  -0.592  1.00  0.00     0.147 C 
HETATM    8  C   UNL     1      -1.176   0.812  -0.927  1.00  0.00     0.147 C 
HETATM    9  N   UNL     1      -0.274   1.249   0.126  1.00  0.00    -0.335 N 
HETATM   10  C   UNL     1       0.506   2.379   0.014  1.00  0.00     0.224 C 
HETATM   11  O   UNL     1       1.385   2.645   0.831  1.00  0.00    -0.273 OA
HETATM   12  H   UNL     1      -4.108  -1.136  -0.644  1.00  0.00     0.170 HD
ENDROOT
BRANCH   1  13
HETATM   13  C   UNL     1       1.081  -0.738   0.924  1.00  0.00     0.243 C 
HETATM   14  N   UNL     1       1.946  -0.411  -0.095  1.00  0.00    -0.345 N 
HETATM   15  H   UNL     1       1.862   0.458  -0.551  1.00  0.00     0.163 HD
HETATM   16  O   UNL     1       1.209  -1.764   1.591  1.00  0.00    -0.271 OA
BRANCH  14  17
HETATM   17  C   UNL     1       2.976  -1.339  -0.498  1.00  0.00     0.188 C 
BRANCH  17  18
HETATM   18  C   UNL     1       2.332  -2.420  -1.342  1.00  0.00     0.281 C 
HETATM   19  O   UNL     1       1.381  -2.259  -2.099  1.00  0.00    -0.263 OA
BRANCH  18  20
HETATM   20  O   UNL     1       2.996  -3.593  -1.155  1.00  0.00    -0.325 OA
HETATM   21  C   UNL     1       2.405  -4.646  -1.909  1.00  0.00     0.213 C 
ENDBRANCH  18  20
ENDBRANCH  17  18
BRANCH  17  22
HETATM   22  C   UNL     1       3.984  -0.640  -1.387  1.00  0.00     0.075 C 
BRANCH  22  23
HETATM   23  C   UNL     1       5.140  -0.129  -0.601  1.00  0.00    -0.038 A 
HETATM   24  C   UNL     1       5.118   1.141  -0.034  1.00  0.00     0.010 A 
HETATM   25  C   UNL     1       6.214   1.596   0.686  1.00  0.00     0.020 A 
HETATM   26  C   UNL     1       7.302   0.746   0.799  1.00  0.00     0.116 A 
HETATM   27  N   UNL     1       7.363  -0.490   0.253  1.00  0.00    -0.273 NA
HETATM   28  C   UNL     1       6.280  -0.897  -0.437  1.00  0.00     0.123 A 
ENDBRANCH  22  23
ENDBRANCH  17  22
ENDBRANCH  14  17
ENDBRANCH   1  13
BRANCH  10  29
HETATM   29  C   UNL     1       0.178   3.277  -1.159  1.00  0.00     0.078 C 
HETATM   30  C   UNL     1      -1.161   3.966  -0.983  1.00  0.00     0.014 C 
HETATM   31  C   UNL     1      -1.082   5.188  -0.093  1.00  0.00     0.001 C 
HETATM   32  C   UNL     1      -0.026   6.148  -0.593  1.00  0.00     0.000 C 
HETATM   33  C   UNL     1       1.325   5.472  -0.626  1.00  0.00     0.001 C 
HETATM   34  C   UNL     1       1.302   4.235  -1.500  1.00  0.00     0.014 C 
ENDBRANCH  10  29
BRANCH   6  35
HETATM   35  C   UNL     1      -5.668  -1.911   0.418  1.00  0.00     0.036 A 
HETATM   36  C   UNL     1      -6.420  -2.090  -0.742  1.00  0.00     0.029 A 
HETATM   37  C   UNL     1      -7.700  -2.635  -0.669  1.00  0.00     0.002 A 
HETATM   38  C   UNL     1      -8.232  -2.999   0.565  1.00  0.00     0.000 A 
HETATM   39  C   UNL     1      -7.484  -2.821   1.726  1.00  0.00     0.002 A 
HETATM   40  C   UNL     1      -6.203  -2.278   1.652  1.00  0.00     0.029 A 
ENDBRANCH   6  35
TORSDOF 8
