REMARK  14 active torsions:
REMARK  status: ('A' for Active; 'I' for Inactive)
REMARK    1  A    between atoms: C_3  and  C_4 
REMARK    2  A    between atoms: C_7  and  C_8 
REMARK    3  A    between atoms: C_11  and  C_12 
REMARK    4  A    between atoms: C_12  and  C_14 
REMARK    5  A    between atoms: C_17  and  C_18 
REMARK    6  A    between atoms: C_18  and  C_19 
REMARK    7  A    between atoms: C_18  and  N_32 
REMARK    8  A    between atoms: C_19  and  C_20 
REMARK    9  A    between atoms: C_22  and  O_23 
REMARK   10  A    between atoms: C_25  and  N_26 
REMARK   11  A    between atoms: N_26  and  C_27 
REMARK   12  A    between atoms: C_27  and  C_28 
REMARK   13  A    between atoms: C_28  and  O_30 
REMARK       I    between atoms: N_32  and  C_33 
REMARK       I    between atoms: C_33  and  N_35 
REMARK   14  A    between atoms: N_35  and  C_36 
ROOT
HETATM    1  C   UNL     1      13.229   4.524   0.536  1.00  0.00     0.112 C 
HETATM    2  C   UNL     1      12.177   3.535   0.749  1.00  0.00    -0.105 C 
HETATM    3  C   UNL     1      11.309   2.724   0.924  1.00  0.00    -0.060 C 
ENDROOT
BRANCH   3   4
HETATM    4  C   UNL     1      10.278   1.764   1.136  1.00  0.00     0.059 A 
HETATM    5  C   UNL     1      10.457   0.544   1.736  1.00  0.00     0.029 A 
HETATM    6  C   UNL     1       9.257  -0.194   1.815  1.00  0.00     0.022 A 
HETATM    7  C   UNL     1       8.170   0.464   1.276  1.00  0.00     0.023 A 
HETATM    8  S   UNL     1       8.650   2.001   0.674  1.00  0.00    -0.080 SA
BRANCH   7   9
HETATM    9  C   UNL     1       6.820  -0.042   1.223  1.00  0.00     0.022 A 
HETATM   10  C   UNL     1       6.384  -1.229   1.772  1.00  0.00     0.021 A 
HETATM   11  C   UNL     1       5.008  -1.467   1.573  1.00  0.00     0.024 A 
HETATM   12  C   UNL     1       4.396  -0.463   0.860  1.00  0.00     0.051 A 
HETATM   13  S   UNL     1       5.515   0.763   0.446  1.00  0.00    -0.085 SA
BRANCH  12  14
HETATM   14  C   UNL     1       3.005  -0.355   0.467  1.00  0.00     0.171 C 
HETATM   15  O   UNL     1       2.544   0.549  -0.229  1.00  0.00    -0.291 OA
BRANCH  14  16
HETATM   16  C   UNL     1       2.110  -1.464   0.993  1.00  0.00     0.070 C 
HETATM   17  C   UNL     1       1.236  -0.915   2.107  1.00  0.00     0.014 C 
HETATM   18  C   UNL     1      -0.227  -0.785   1.737  1.00  0.00     0.007 C 
HETATM   19  C   UNL     1      -0.393  -0.372   0.289  1.00  0.00     0.010 C 
HETATM   20  C   UNL     1       0.168  -1.431  -0.645  1.00  0.00     0.017 C 
HETATM   21  C   UNL     1       1.346  -2.219  -0.085  1.00  0.00    -0.029 C 
HETATM   22  C   UNL     1       0.847  -3.541   0.483  1.00  0.00     0.010 C 
HETATM   23  C   UNL     1       2.257  -2.670  -1.216  1.00  0.00     0.010 C 
HETATM   24  C   UNL     1       0.720  -4.482  -0.699  1.00  0.00     0.001 C 
HETATM   25  C   UNL     1       1.639  -3.937  -1.777  1.00  0.00     0.001 C 
BRANCH  19  26
HETATM   26  C   UNL     1      -1.836  -0.061  -0.056  1.00  0.00     0.107 C 
BRANCH  26  27
HETATM   27  C   UNL     1      -1.959   0.431  -1.488  1.00  0.00     0.065 C 
BRANCH  27  28
HETATM   28  C   UNL     1      -3.193  -0.110  -2.132  1.00  0.00    -0.051 A 
HETATM   29  C   UNL     1      -3.218  -1.408  -2.635  1.00  0.00     0.043 A 
HETATM   30  C   UNL     1      -4.394  -1.895  -3.188  1.00  0.00     0.068 A 
HETATM   31  C   UNL     1      -5.543  -1.114  -3.248  1.00  0.00     0.065 A 
HETATM   32  C   UNL     1      -5.530   0.195  -2.757  1.00  0.00     0.031 A 
HETATM   33  C   UNL     1      -4.339   0.685  -2.209  1.00  0.00     0.036 A 
BRANCH  30  34
HETATM   34  O   UNL     1      -4.426  -3.167  -3.676  1.00  0.00    -0.361 OA
HETATM   35  H   UNL     1      -3.656  -3.701  -3.641  1.00  0.00     0.217 HD
ENDBRANCH  30  34
BRANCH  32  36
HETATM   36  N   UNL     1      -6.712   0.947  -2.825  1.00  0.00    -0.387 N 
HETATM   37  H   UNL     1      -7.547   0.594  -3.209  1.00  0.00     0.159 HD
BRANCH  36  38
HETATM   38  C   UNL     1      -6.601   2.293  -2.283  1.00  0.00     0.151 C 
BRANCH  38  39
HETATM   39  C   UNL     1      -7.890   3.046  -2.525  1.00  0.00     0.131 C 
HETATM   40  C   UNL     1      -7.866   3.689  -3.891  1.00  0.00     0.041 C 
BRANCH  39  41
HETATM   41  O   UNL     1      -7.995   4.084  -1.561  1.00  0.00    -0.394 OA
HETATM   42  H   UNL     1      -7.238   4.683  -1.647  1.00  0.00     0.210 HD
ENDBRANCH  39  41
ENDBRANCH  38  39
ENDBRANCH  36  38
ENDBRANCH  32  36
ENDBRANCH  27  28
ENDBRANCH  26  27
BRANCH  26  43
HETATM   43  N   UNL     1      -2.353   0.962   0.834  1.00  0.00    -0.220 N 
HETATM   44  C   UNL     1      -3.595   0.840   1.425  1.00  0.00     0.689 C 
HETATM   45  N   UNL     1      -4.090   1.793   2.161  1.00  0.00    -0.118 NA
HETATM   46  N   UNL     1      -4.247  -0.352   1.168  1.00  0.00    -0.221 N 
HETATM   47  H   UNL     1      -3.577   2.620   2.307  1.00  0.00     0.206 HD
HETATM   48  H   UNL     1      -3.773  -1.049   0.657  1.00  0.00     0.178 HD
HETATM   49  H   UNL     1      -1.807   1.759   1.020  1.00  0.00     0.178 HD
BRANCH  46  50
HETATM   50  C   UNL     1      -5.596  -0.619   1.617  1.00  0.00     0.099 C 
HETATM   51  C   UNL     1      -6.591   0.322   0.980  1.00  0.00     0.026 C 
HETATM   52  C   UNL     1      -8.019  -0.007   1.359  1.00  0.00     0.002 C 
HETATM   53  C   UNL     1      -8.150  -0.774   2.658  1.00  0.00     0.000 C 
HETATM   54  C   UNL     1      -7.075  -0.404   3.655  1.00  0.00     0.002 C 
HETATM   55  C   UNL     1      -5.682  -0.673   3.126  1.00  0.00     0.026 C 
ENDBRANCH  46  50
ENDBRANCH  26  43
ENDBRANCH  19  26
ENDBRANCH  14  16
ENDBRANCH  12  14
ENDBRANCH   7   9
ENDBRANCH   3   4
TORSDOF 14
