REMARK  9 active torsions:
REMARK  status: ('A' for Active; 'I' for Inactive)
REMARK    1  A    between atoms: O_2  and  C_3 
REMARK    2  A    between atoms: C_11  and  O_12 
REMARK    3  A    between atoms: O_12  and  C_13 
REMARK    4  A    between atoms: C_13  and  C_15 
REMARK    5  A    between atoms: C_15  and  N_16 
REMARK       I    between atoms: N_16  and  C_17 
REMARK    6  A    between atoms: C_17  and  C_19 
REMARK    7  A    between atoms: C_29  and  O_30 
REMARK    8  A    between atoms: C_38  and  O_39 
REMARK    9  A    between atoms: C_42  and  O_43 
ROOT
HETATM    1  C   UNL     1      -4.554  -2.068  -2.188  1.00  0.00     0.152 C 
HETATM    2  C   UNL     1      -3.821  -0.801  -2.454  1.00  0.00     0.005 C 
HETATM    3  C   UNL     1      -2.708  -0.397  -1.839  1.00  0.00    -0.001 C 
HETATM    4  C   UNL     1      -1.979  -1.171  -0.881  1.00  0.00    -0.000 C 
HETATM    5  C   UNL     1      -1.049  -0.628  -0.095  1.00  0.00    -0.000 C 
HETATM    6  C   UNL     1      -0.253  -1.435   0.779  1.00  0.00    -0.004 C 
HETATM    7  C   UNL     1       0.563  -0.974   1.730  1.00  0.00    -0.024 C 
HETATM    8  C   UNL     1       0.706   0.439   2.162  1.00  0.00     0.060 C 
HETATM    9  C   UNL     1       1.760   1.218   1.398  1.00  0.00     0.142 C 
HETATM   10  C   UNL     1       1.610   2.714   1.659  1.00  0.00     0.044 C 
HETATM   11  C   UNL     1       2.932   3.446   1.527  1.00  0.00     0.015 C 
HETATM   12  C   UNL     1       0.543   3.326   0.758  1.00  0.00     0.152 C 
HETATM   13  C   UNL     1      -0.892   3.079   1.113  1.00  0.00    -0.059 C 
HETATM   14  C   UNL     1      -1.831   3.260  -0.028  1.00  0.00     0.046 C 
HETATM   15  C   UNL     1      -1.293   2.712   2.335  1.00  0.00    -0.021 C 
HETATM   16  C   UNL     1      -2.612   2.398   2.926  1.00  0.00     0.032 C 
HETATM   17  C   UNL     1      -3.835   3.091   2.371  1.00  0.00     0.045 C 
HETATM   18  C   UNL     1      -4.645   2.270   1.418  1.00  0.00    -0.020 A 
HETATM   19  C   UNL     1      -5.228   2.948   0.345  1.00  0.00     0.046 A 
HETATM   20  C   UNL     1      -5.974   2.249  -0.596  1.00  0.00     0.068 A 
HETATM   21  C   UNL     1      -6.147   0.876  -0.503  1.00  0.00     0.069 A 
HETATM   22  C   UNL     1      -5.569   0.180   0.556  1.00  0.00     0.071 A 
HETATM   23  C   UNL     1      -4.852   0.889   1.528  1.00  0.00     0.098 A 
HETATM   24  N   UNL     1      -5.676  -1.211   0.680  1.00  0.00    -0.325 N 
HETATM   25  C   UNL     1      -6.007  -2.162  -0.254  1.00  0.00     0.225 C 
HETATM   26  O   UNL     1      -6.257  -3.329   0.048  1.00  0.00    -0.273 OA
HETATM   27  C   UNL     1      -5.950  -1.753  -1.694  1.00  0.00     0.139 C 
HETATM   28  H   UNL     1      -5.484  -1.563   1.580  1.00  0.00     0.169 HD
ENDROOT
BRANCH   9  29
HETATM   29  O   UNL     1       3.044   0.759   1.825  1.00  0.00    -0.313 OA
BRANCH  29  30
HETATM   30  C   UNL     1       3.738   0.206   0.787  1.00  0.00     0.287 C 
HETATM   31  O   UNL     1       3.313   0.107  -0.356  1.00  0.00    -0.262 OA
BRANCH  30  32
HETATM   32  C   UNL     1       5.088  -0.303   1.193  1.00  0.00     0.121 A 
HETATM   33  C   UNL     1       6.100   0.734   1.634  1.00  0.00     0.044 A 
HETATM   34  C   UNL     1       5.497  -0.181   2.648  1.00  0.00     0.044 A 
BRANCH  32  35
HETATM   35  N   UNL     1       5.535  -1.472   0.483  1.00  0.00    -0.342 N 
HETATM   36  C   UNL     1       6.213  -1.392  -0.719  1.00  0.00     0.222 C 
HETATM   37  O   UNL     1       6.569  -0.346  -1.252  1.00  0.00    -0.273 OA
HETATM   38  H   UNL     1       5.351  -2.360   0.867  1.00  0.00     0.163 HD
BRANCH  36  39
HETATM   39  C   UNL     1       6.494  -2.763  -1.287  1.00  0.00     0.078 C 
HETATM   40  C   UNL     1       7.025  -2.680  -2.704  1.00  0.00     0.014 C 
HETATM   41  C   UNL     1       8.430  -3.218  -2.867  1.00  0.00     0.001 C 
HETATM   42  C   UNL     1       9.334  -2.762  -1.747  1.00  0.00     0.000 C 
HETATM   43  C   UNL     1       8.825  -3.165  -0.381  1.00  0.00     0.001 C 
HETATM   44  C   UNL     1       7.370  -3.579  -0.358  1.00  0.00     0.014 C 
ENDBRANCH  36  39
ENDBRANCH  32  35
ENDBRANCH  30  32
ENDBRANCH  29  30
ENDBRANCH   9  29
BRANCH  12  45
HETATM   45  O   UNL     1       0.720   4.731   0.638  1.00  0.00    -0.391 OA
HETATM   46  H   UNL     1       0.558   5.151   1.497  1.00  0.00     0.210 HD
ENDBRANCH  12  45
BRANCH   1  47
HETATM   47  O   UNL     1      -4.642  -2.799  -3.403  1.00  0.00    -0.386 OA
HETATM   48  C   UNL     1      -4.769  -4.174  -3.066  1.00  0.00     0.202 C 
ENDBRANCH   1  47
BRANCH  23  49
HETATM   49  O   UNL     1      -4.329   0.207   2.592  1.00  0.00    -0.358 OA
HETATM   50  H   UNL     1      -4.466  -0.717   2.669  1.00  0.00     0.217 HD
ENDBRANCH  23  49
BRANCH  20  51
HETATM   51  O   UNL     1      -6.537   2.923  -1.637  1.00  0.00    -0.361 OA
HETATM   52  H   UNL     1      -6.426   3.851  -1.709  1.00  0.00     0.217 HD
ENDBRANCH  20  51
TORSDOF 9
