REMARK  7 active torsions:
REMARK  status: ('A' for Active; 'I' for Inactive)
REMARK    1  A    between atoms: O_2  and  C_3 
REMARK    2  A    between atoms: C_11  and  O_12 
REMARK    3  A    between atoms: O_12  and  C_13 
REMARK    4  A    between atoms: C_13  and  C_15 
REMARK    5  A    between atoms: C_15  and  N_16 
REMARK       I    between atoms: N_16  and  C_17 
REMARK    6  A    between atoms: C_17  and  C_19 
REMARK    7  A    between atoms: C_29  and  O_30 
ROOT
HETATM    1  C   UNL     1      -5.317  -3.224   2.475  1.00  0.00     0.152 C 
HETATM    2  C   UNL     1      -4.321  -2.603   3.389  1.00  0.00     0.005 C 
HETATM    3  C   UNL     1      -3.062  -2.294   3.065  1.00  0.00    -0.001 C 
HETATM    4  C   UNL     1      -2.468  -2.551   1.787  1.00  0.00    -0.000 C 
HETATM    5  C   UNL     1      -1.249  -2.108   1.477  1.00  0.00    -0.000 C 
HETATM    6  C   UNL     1      -0.641  -2.388   0.210  1.00  0.00    -0.004 C 
HETATM    7  C   UNL     1       0.530  -1.885  -0.190  1.00  0.00    -0.024 C 
HETATM    8  C   UNL     1       1.365  -0.940   0.598  1.00  0.00     0.060 C 
HETATM    9  C   UNL     1       1.771   0.275  -0.215  1.00  0.00     0.142 C 
HETATM   10  C   UNL     1       0.767   1.411  -0.162  1.00  0.00     0.044 C 
HETATM   11  C   UNL     1       0.312   1.786   1.232  1.00  0.00     0.015 C 
HETATM   12  C   UNL     1      -0.329   1.266  -1.192  1.00  0.00     0.152 C 
HETATM   13  C   UNL     1      -0.551   2.558  -1.918  1.00  0.00    -0.059 C 
HETATM   14  C   UNL     1       0.317   2.742  -3.119  1.00  0.00     0.046 C 
HETATM   15  C   UNL     1      -1.423   3.527  -1.609  1.00  0.00    -0.021 C 
HETATM   16  C   UNL     1      -2.368   3.545  -0.460  1.00  0.00     0.032 C 
HETATM   17  C   UNL     1      -3.797   3.651  -0.953  1.00  0.00     0.047 C 
HETATM   18  C   UNL     1      -4.405   2.315  -1.200  1.00  0.00    -0.002 A 
HETATM   19  C   UNL     1      -4.587   1.858  -2.443  1.00  0.00     0.066 A 
HETATM   20  C   UNL     1      -5.184   0.536  -2.702  1.00  0.00     0.174 A 
HETATM   21  O   UNL     1      -5.363   0.133  -3.845  1.00  0.00    -0.288 OA
HETATM   22  C   UNL     1      -5.558  -0.273  -1.529  1.00  0.00     0.088 A 
HETATM   23  C   UNL     1      -5.403   0.167  -0.275  1.00  0.00     0.089 A 
HETATM   24  N   UNL     1      -5.748  -0.561   0.838  1.00  0.00    -0.324 N 
HETATM   25  C   UNL     1      -6.397  -1.776   0.885  1.00  0.00     0.225 C 
HETATM   26  O   UNL     1      -6.841  -2.405  -0.069  1.00  0.00    -0.273 OA
HETATM   27  C   UNL     1      -6.490  -2.289   2.287  1.00  0.00     0.139 C 
HETATM   28  C   UNL     1      -4.812   1.512  -0.019  1.00  0.00     0.205 A 
HETATM   29  O   UNL     1      -4.669   1.954   1.119  1.00  0.00    -0.285 OA
HETATM   30  H   UNL     1      -5.501  -0.168   1.707  1.00  0.00     0.169 HD
ENDROOT
BRANCH   9  31
HETATM   31  O   UNL     1       3.012   0.744   0.323  1.00  0.00    -0.313 OA
BRANCH  31  32
HETATM   32  C   UNL     1       3.792   1.303  -0.651  1.00  0.00     0.287 C 
HETATM   33  O   UNL     1       3.481   1.405  -1.833  1.00  0.00    -0.262 OA
BRANCH  32  34
HETATM   34  C   UNL     1       5.064   1.834  -0.087  1.00  0.00     0.121 A 
HETATM   35  C   UNL     1       5.668   3.058  -0.740  1.00  0.00     0.044 A 
HETATM   36  C   UNL     1       4.967   3.195   0.570  1.00  0.00     0.044 A 
BRANCH  34  37
HETATM   37  N   UNL     1       5.933   0.865   0.523  1.00  0.00    -0.342 N 
HETATM   38  C   UNL     1       6.754   0.036  -0.216  1.00  0.00     0.222 C 
HETATM   39  O   UNL     1       6.815   0.035  -1.443  1.00  0.00    -0.273 OA
HETATM   40  H   UNL     1       5.944   0.790   1.505  1.00  0.00     0.163 HD
BRANCH  38  41
HETATM   41  C   UNL     1       7.548  -0.895   0.669  1.00  0.00     0.078 C 
HETATM   42  C   UNL     1       8.294  -1.923  -0.156  1.00  0.00     0.014 C 
HETATM   43  C   UNL     1       9.796  -1.740  -0.123  1.00  0.00     0.001 C 
HETATM   44  C   UNL     1      10.333  -1.747   1.295  1.00  0.00     0.000 C 
HETATM   45  C   UNL     1       9.450  -1.012   2.291  1.00  0.00     0.001 C 
HETATM   46  C   UNL     1       8.450  -0.106   1.612  1.00  0.00     0.014 C 
ENDBRANCH  38  41
ENDBRANCH  34  37
ENDBRANCH  32  34
ENDBRANCH  31  32
ENDBRANCH   9  31
BRANCH  12  47
HETATM   47  O   UNL     1      -1.524   0.756  -0.627  1.00  0.00    -0.391 OA
HETATM   48  H   UNL     1      -1.859   1.379   0.037  1.00  0.00     0.210 HD
ENDBRANCH  12  47
BRANCH   1  49
HETATM   49  O   UNL     1      -5.775  -4.438   3.055  1.00  0.00    -0.386 OA
HETATM   50  C   UNL     1      -6.136  -5.310   1.992  1.00  0.00     0.202 C 
ENDBRANCH   1  49
TORSDOF 7
