REMARK  17 active torsions:
REMARK  status: ('A' for Active; 'I' for Inactive)
REMARK    1  A    between atoms: C_3  and  C_4 
REMARK    2  A    between atoms: C_7  and  C_8 
REMARK    3  A    between atoms: C_11  and  C_12 
REMARK    4  A    between atoms: C_12  and  C_14 
REMARK    5  A    between atoms: C_17  and  C_18 
REMARK    6  A    between atoms: C_18  and  C_19 
REMARK    7  A    between atoms: C_18  and  N_32 
REMARK    8  A    between atoms: C_19  and  C_20 
REMARK    9  A    between atoms: C_22  and  O_23 
REMARK   10  A    between atoms: C_25  and  N_26 
REMARK   11  A    between atoms: N_26  and  C_27 
REMARK   12  A    between atoms: C_27  and  C_28 
REMARK   13  A    between atoms: C_28  and  O_30 
REMARK       I    between atoms: N_32  and  C_33 
REMARK       I    between atoms: C_33  and  N_35 
REMARK   14  A    between atoms: C_41  and  C_42 
REMARK   15  A    between atoms: C_42  and  O_43 
REMARK   16  A    between atoms: C_42  and  C_44 
REMARK   17  A    between atoms: C_44  and  O_45 
ROOT
HETATM    1  C   UNL     1       6.931   9.239   1.002  1.00  0.00     0.112 C 
HETATM    2  C   UNL     1       6.513   7.861   1.234  1.00  0.00    -0.105 C 
HETATM    3  C   UNL     1       6.169   6.727   1.421  1.00  0.00    -0.060 C 
ENDROOT
BRANCH   3   4
HETATM    4  C   UNL     1       5.759   5.380   1.637  1.00  0.00     0.059 A 
HETATM    5  C   UNL     1       6.458   4.460   2.376  1.00  0.00     0.029 A 
HETATM    6  C   UNL     1       5.816   3.203   2.410  1.00  0.00     0.022 A 
HETATM    7  C   UNL     1       4.635   3.171   1.700  1.00  0.00     0.023 A 
HETATM    8  S   UNL     1       4.325   4.710   0.998  1.00  0.00    -0.080 SA
BRANCH   7   9
HETATM    9  C   UNL     1       3.771   2.024   1.554  1.00  0.00     0.022 A 
HETATM   10  C   UNL     1       3.988   0.779   2.104  1.00  0.00     0.021 A 
HETATM   11  C   UNL     1       2.982  -0.158   1.784  1.00  0.00     0.024 A 
HETATM   12  C   UNL     1       1.993   0.378   0.995  1.00  0.00     0.051 A 
HETATM   13  S   UNL     1       2.308   2.024   0.653  1.00  0.00    -0.085 SA
BRANCH  12  14
HETATM   14  C   UNL     1       0.808  -0.271   0.468  1.00  0.00     0.171 C 
HETATM   15  O   UNL     1      -0.045   0.286  -0.224  1.00  0.00    -0.291 OA
BRANCH  14  16
HETATM   16  C   UNL     1       0.674  -1.742   0.828  1.00  0.00     0.070 C 
HETATM   17  C   UNL     1      -0.537  -1.928   1.724  1.00  0.00     0.014 C 
HETATM   18  C   UNL     1      -1.701  -2.635   1.062  1.00  0.00     0.007 C 
HETATM   19  C   UNL     1      -1.802  -2.294  -0.405  1.00  0.00     0.010 C 
HETATM   20  C   UNL     1      -0.558  -2.624  -1.201  1.00  0.00     0.017 C 
HETATM   21  C   UNL     1       0.719  -2.676  -0.374  1.00  0.00    -0.029 C 
HETATM   22  C   UNL     1       0.948  -4.112   0.096  1.00  0.00     0.011 C 
HETATM   23  C   UNL     1       1.923  -2.397  -1.259  1.00  0.00     0.017 C 
HETATM   24  C   UNL     1       1.943  -4.749  -0.861  1.00  0.00     0.008 C 
HETATM   25  C   UNL     1       2.203  -3.719  -1.944  1.00  0.00     0.017 C 
BRANCH  19  26
HETATM   26  C   UNL     1      -3.070  -2.739  -1.090  1.00  0.00     0.107 C 
BRANCH  26  27
HETATM   27  C   UNL     1      -4.355  -2.260  -0.449  1.00  0.00     0.065 C 
BRANCH  27  28
HETATM   28  C   UNL     1      -4.545  -0.790  -0.620  1.00  0.00    -0.051 A 
HETATM   29  C   UNL     1      -4.881  -0.254  -1.861  1.00  0.00     0.043 A 
HETATM   30  C   UNL     1      -5.029   1.121  -1.983  1.00  0.00     0.068 A 
HETATM   31  C   UNL     1      -4.854   1.967  -0.893  1.00  0.00     0.065 A 
HETATM   32  C   UNL     1      -4.528   1.442   0.362  1.00  0.00     0.031 A 
HETATM   33  C   UNL     1      -4.381   0.055   0.481  1.00  0.00     0.036 A 
BRANCH  30  34
HETATM   34  O   UNL     1      -5.350   1.653  -3.197  1.00  0.00    -0.361 OA
HETATM   35  H   UNL     1      -5.470   1.092  -3.938  1.00  0.00     0.217 HD
ENDBRANCH  30  34
BRANCH  32  36
HETATM   36  N   UNL     1      -4.347   2.233   1.509  1.00  0.00    -0.387 N 
HETATM   37  H   UNL     1      -4.168   1.850   2.398  1.00  0.00     0.159 HD
BRANCH  36  38
HETATM   38  C   UNL     1      -4.448   3.664   1.273  1.00  0.00     0.151 C 
BRANCH  38  39
HETATM   39  C   UNL     1      -4.985   4.348   2.511  1.00  0.00     0.131 C 
HETATM   40  C   UNL     1      -3.849   4.726   3.435  1.00  0.00     0.041 C 
BRANCH  39  41
HETATM   41  O   UNL     1      -5.636   5.547   2.109  1.00  0.00    -0.394 OA
HETATM   42  H   UNL     1      -5.001   6.123   1.655  1.00  0.00     0.210 HD
ENDBRANCH  39  41
ENDBRANCH  38  39
ENDBRANCH  36  38
ENDBRANCH  32  36
ENDBRANCH  27  28
ENDBRANCH  26  27
BRANCH  26  43
HETATM   43  N   UNL     1      -3.093  -4.147  -1.422  1.00  0.00    -0.220 N 
HETATM   44  C   UNL     1      -3.384  -5.149  -0.520  1.00  0.00     0.689 C 
HETATM   45  N   UNL     1      -3.710  -4.952   0.724  1.00  0.00    -0.118 NA
HETATM   46  N   UNL     1      -3.294  -6.400  -1.094  1.00  0.00    -0.229 N 
HETATM   47  H   UNL     1      -3.759  -4.036   1.082  1.00  0.00     0.206 HD
HETATM   48  C   UNL     1      -3.582  -7.567  -0.292  1.00  0.00     0.165 C 
HETATM   49  H   UNL     1      -3.037  -6.496  -2.040  1.00  0.00     0.177 HD
HETATM   50  H   UNL     1      -2.889  -4.406  -2.349  1.00  0.00     0.178 HD
ENDBRANCH  26  43
ENDBRANCH  19  26
BRANCH  25  51
HETATM   51  C   UNL     1       3.611  -3.801  -2.501  1.00  0.00     0.145 C 
BRANCH  51  52
HETATM   52  O   UNL     1       3.873  -5.143  -2.894  1.00  0.00    -0.393 OA
HETATM   53  H   UNL     1       3.249  -5.405  -3.588  1.00  0.00     0.210 HD
ENDBRANCH  51  52
BRANCH  51  54
HETATM   54  C   UNL     1       3.795  -2.932  -3.728  1.00  0.00     0.196 C 
BRANCH  54  55
HETATM   55  O   UNL     1       3.818  -1.562  -3.362  1.00  0.00    -0.398 OA
HETATM   56  H   UNL     1       2.978  -1.327  -2.936  1.00  0.00     0.209 HD
ENDBRANCH  54  55
ENDBRANCH  51  54
ENDBRANCH  25  51
ENDBRANCH  14  16
ENDBRANCH  12  14
ENDBRANCH   7   9
ENDBRANCH   3   4
TORSDOF 17
