REMARK  18 active torsions:
REMARK  status: ('A' for Active; 'I' for Inactive)
REMARK    1  A    between atoms: C_3  and  C_4 
REMARK    2  A    between atoms: C_7  and  C_8 
REMARK    3  A    between atoms: C_11  and  C_12 
REMARK    4  A    between atoms: C_12  and  C_14 
REMARK    5  A    between atoms: C_17  and  C_18 
REMARK    6  A    between atoms: C_18  and  C_19 
REMARK    7  A    between atoms: C_18  and  N_32 
REMARK    8  A    between atoms: C_19  and  C_20 
REMARK    9  A    between atoms: C_22  and  O_23 
REMARK   10  A    between atoms: C_25  and  N_26 
REMARK   11  A    between atoms: N_26  and  C_27 
REMARK   12  A    between atoms: C_27  and  C_28 
REMARK   13  A    between atoms: C_28  and  O_30 
REMARK       I    between atoms: N_32  and  C_33 
REMARK       I    between atoms: C_33  and  N_35 
REMARK   14  A    between atoms: N_35  and  C_36 
REMARK   15  A    between atoms: C_45  and  C_46 
REMARK   16  A    between atoms: C_46  and  O_47 
REMARK   17  A    between atoms: C_46  and  C_48 
REMARK   18  A    between atoms: C_48  and  O_49 
ROOT
HETATM    1  C   UNL     1      13.201  -4.242   0.140  1.00  0.00     0.112 C 
HETATM    2  C   UNL     1      11.770  -3.984   0.019  1.00  0.00    -0.105 C 
HETATM    3  C   UNL     1      10.593  -3.769  -0.080  1.00  0.00    -0.060 C 
ENDROOT
BRANCH   3   4
HETATM    4  C   UNL     1       9.196  -3.515  -0.187  1.00  0.00     0.059 A 
HETATM    5  C   UNL     1       8.239  -4.481  -0.372  1.00  0.00     0.029 A 
HETATM    6  C   UNL     1       6.937  -3.938  -0.444  1.00  0.00     0.022 A 
HETATM    7  C   UNL     1       6.908  -2.565  -0.311  1.00  0.00     0.023 A 
HETATM    8  S   UNL     1       8.503  -1.954  -0.096  1.00  0.00    -0.080 SA
BRANCH   7   9
HETATM    9  C   UNL     1       5.754  -1.702  -0.337  1.00  0.00     0.022 A 
HETATM   10  C   UNL     1       5.718  -0.336  -0.156  1.00  0.00     0.021 A 
HETATM   11  C   UNL     1       4.418   0.203  -0.231  1.00  0.00     0.024 A 
HETATM   12  C   UNL     1       3.461  -0.753  -0.477  1.00  0.00     0.051 A 
HETATM   13  S   UNL     1       4.168  -2.305  -0.612  1.00  0.00    -0.085 SA
BRANCH  12  14
HETATM   14  C   UNL     1       2.029  -0.581  -0.618  1.00  0.00     0.171 C 
HETATM   15  O   UNL     1       1.245  -1.482  -0.919  1.00  0.00    -0.291 OA
BRANCH  14  16
HETATM   16  C   UNL     1       1.532   0.834  -0.375  1.00  0.00     0.070 C 
HETATM   17  C   UNL     1       0.818   1.356  -1.612  1.00  0.00     0.014 C 
HETATM   18  C   UNL     1      -0.615   0.867  -1.718  1.00  0.00     0.007 C 
HETATM   19  C   UNL     1      -1.380   1.128  -0.436  1.00  0.00     0.010 C 
HETATM   20  C   UNL     1      -0.682   0.455   0.730  1.00  0.00     0.017 C 
HETATM   21  C   UNL     1       0.722   1.012   0.906  1.00  0.00    -0.029 C 
HETATM   22  C   UNL     1       1.376   0.346   2.106  1.00  0.00     0.011 C 
HETATM   23  C   UNL     1       0.637   2.499   1.239  1.00  0.00     0.017 C 
HETATM   24  C   UNL     1       1.895   1.449   3.008  1.00  0.00     0.008 C 
HETATM   25  C   UNL     1       1.091   2.685   2.672  1.00  0.00     0.017 C 
BRANCH  19  26
HETATM   26  C   UNL     1      -2.838   0.733  -0.532  1.00  0.00     0.107 C 
BRANCH  26  27
HETATM   27  C   UNL     1      -3.520   1.372  -1.727  1.00  0.00     0.065 C 
BRANCH  27  28
HETATM   28  C   UNL     1      -4.423   0.412  -2.425  1.00  0.00    -0.051 A 
HETATM   29  C   UNL     1      -5.791   0.663  -2.462  1.00  0.00     0.043 A 
HETATM   30  C   UNL     1      -6.626  -0.231  -3.120  1.00  0.00     0.068 A 
HETATM   31  C   UNL     1      -6.122  -1.370  -3.738  1.00  0.00     0.065 A 
HETATM   32  C   UNL     1      -4.750  -1.637  -3.710  1.00  0.00     0.031 A 
HETATM   33  C   UNL     1      -3.911  -0.727  -3.055  1.00  0.00     0.036 A 
BRANCH  30  34
HETATM   34  O   UNL     1      -7.964   0.018  -3.171  1.00  0.00    -0.361 OA
HETATM   35  H   UNL     1      -8.315   0.782  -2.758  1.00  0.00     0.217 HD
ENDBRANCH  30  34
BRANCH  32  36
HETATM   36  N   UNL     1      -4.279  -2.802  -4.338  1.00  0.00    -0.387 N 
HETATM   37  H   UNL     1      -4.862  -3.395  -4.866  1.00  0.00     0.159 HD
BRANCH  36  38
HETATM   38  C   UNL     1      -2.858  -3.063  -4.146  1.00  0.00     0.151 C 
BRANCH  38  39
HETATM   39  C   UNL     1      -2.599  -4.265  -3.260  1.00  0.00     0.131 C 
HETATM   40  C   UNL     1      -3.358  -5.495  -3.687  1.00  0.00     0.041 C 
BRANCH  39  41
HETATM   41  O   UNL     1      -2.894  -3.971  -1.904  1.00  0.00    -0.394 OA
HETATM   42  H   UNL     1      -3.840  -3.774  -1.815  1.00  0.00     0.210 HD
ENDBRANCH  39  41
ENDBRANCH  38  39
ENDBRANCH  36  38
ENDBRANCH  32  36
ENDBRANCH  27  28
ENDBRANCH  26  27
BRANCH  26  43
HETATM   43  N   UNL     1      -3.569   1.043   0.683  1.00  0.00    -0.220 N 
HETATM   44  C   UNL     1      -3.621   2.305   1.238  1.00  0.00     0.689 C 
HETATM   45  N   UNL     1      -2.992   3.344   0.766  1.00  0.00    -0.118 NA
HETATM   46  N   UNL     1      -4.417   2.337   2.361  1.00  0.00    -0.221 N 
HETATM   47  H   UNL     1      -2.437   3.258  -0.042  1.00  0.00     0.206 HD
HETATM   48  H   UNL     1      -4.880   1.520   2.659  1.00  0.00     0.178 HD
HETATM   49  H   UNL     1      -4.052   0.314   1.135  1.00  0.00     0.178 HD
BRANCH  46  50
HETATM   50  C   UNL     1      -4.574   3.567   3.105  1.00  0.00     0.099 C 
HETATM   51  C   UNL     1      -4.743   3.223   4.572  1.00  0.00     0.026 C 
HETATM   52  C   UNL     1      -5.730   4.246   5.096  1.00  0.00     0.002 C 
HETATM   53  C   UNL     1      -6.683   4.472   3.941  1.00  0.00     0.002 C 
HETATM   54  C   UNL     1      -5.870   4.237   2.680  1.00  0.00     0.026 C 
ENDBRANCH  46  50
ENDBRANCH  26  43
ENDBRANCH  19  26
BRANCH  25  55
HETATM   55  C   UNL     1      -0.039   2.950   3.649  1.00  0.00     0.145 C 
BRANCH  55  56
HETATM   56  O   UNL     1      -0.950   1.863   3.689  1.00  0.00    -0.393 OA
HETATM   57  H   UNL     1      -1.356   1.748   2.816  1.00  0.00     0.210 HD
ENDBRANCH  55  56
BRANCH  55  58
HETATM   58  C   UNL     1      -0.774   4.225   3.295  1.00  0.00     0.196 C 
BRANCH  58  59
HETATM   59  O   UNL     1      -1.636   4.598   4.359  1.00  0.00    -0.398 OA
HETATM   60  H   UNL     1      -2.283   3.893   4.514  1.00  0.00     0.209 HD
ENDBRANCH  58  59
ENDBRANCH  55  58
ENDBRANCH  25  55
ENDBRANCH  14  16
ENDBRANCH  12  14
ENDBRANCH   7   9
ENDBRANCH   3   4
TORSDOF 18
