REMARK  7 active torsions:
REMARK  status: ('A' for Active; 'I' for Inactive)
REMARK       I    between atoms: N_1  and  C_2 
REMARK    1  A    between atoms: C_2  and  C_4 
REMARK    2  A    between atoms: C_4  and  C_5 
REMARK    3  A    between atoms: C_4  and  N_12 
REMARK    4  A    between atoms: C_5  and  C_6 
REMARK       I    between atoms: N_12  and  C_13 
REMARK    5  A    between atoms: C_13  and  C_15 
REMARK       I    between atoms: N_17  and  C_18 
REMARK       I    between atoms: C_18  and  N_20 
REMARK    6  A    between atoms: N_20  and  C_21 
REMARK       I    between atoms: N_29  and  C_30 
REMARK       I    between atoms: C_30  and  N_32 
REMARK    7  A    between atoms: N_32  and  C_33 
ROOT
HETATM    1  C   UNL     1      -1.378  -0.588  -0.431  1.00  0.00     0.199 C 
HETATM    2  C   UNL     1      -1.334   0.899  -0.769  1.00  0.00     0.162 C 
HETATM    3  N   UNL     1      -0.474   1.242  -1.888  1.00  0.00    -0.330 N 
HETATM    4  C   UNL     1       0.020   2.531  -2.061  1.00  0.00     0.323 C 
HETATM    5  O   UNL     1       0.558   2.871  -3.113  1.00  0.00    -0.247 OA
HETATM    6  N   UNL     1      -0.168   3.336  -0.951  1.00  0.00    -0.309 N 
HETATM    7  C   UNL     1      -0.516   0.384  -3.053  1.00  0.00     0.147 C 
HETATM    8  C   UNL     1      -0.423  -1.089  -2.693  1.00  0.00     0.148 C 
HETATM    9  N   UNL     1      -1.302  -1.459  -1.601  1.00  0.00    -0.318 N 
HETATM   10  C   UNL     1      -1.738  -2.768  -1.550  1.00  0.00     0.319 C 
HETATM   11  O   UNL     1      -1.526  -3.570  -2.456  1.00  0.00    -0.247 OA
HETATM   12  N   UNL     1      -2.430  -3.076  -0.402  1.00  0.00    -0.338 N 
HETATM   13  H   UNL     1      -0.648   2.933  -0.191  1.00  0.00     0.170 HD
HETATM   14  H   UNL     1      -2.573  -2.378   0.278  1.00  0.00     0.164 HD
ENDROOT
BRANCH   1  15
HETATM   15  C   UNL     1      -0.344  -0.847   0.656  1.00  0.00     0.243 C 
HETATM   16  N   UNL     1       0.910  -1.179   0.189  1.00  0.00    -0.346 N 
HETATM   17  H   UNL     1       1.062  -1.200  -0.783  1.00  0.00     0.163 HD
HETATM   18  O   UNL     1      -0.589  -0.647   1.847  1.00  0.00    -0.271 OA
BRANCH  16  19
HETATM   19  C   UNL     1       2.011  -1.497   1.072  1.00  0.00     0.180 C 
BRANCH  19  20
HETATM   20  C   UNL     1       1.870  -2.902   1.640  1.00  0.00     0.238 C 
HETATM   21  N   UNL     1       2.936  -3.236   2.449  1.00  0.00    -0.368 N 
HETATM   22  H   UNL     1       2.967  -4.121   2.880  1.00  0.00     0.159 HD
HETATM   23  H   UNL     1       3.665  -2.591   2.595  1.00  0.00     0.159 HD
HETATM   24  O   UNL     1       0.943  -3.668   1.386  1.00  0.00    -0.271 OA
ENDBRANCH  19  20
BRANCH  19  25
HETATM   25  C   UNL     1       2.226  -0.483   2.182  1.00  0.00     0.074 C 
BRANCH  25  26
HETATM   26  C   UNL     1       2.888   0.758   1.696  1.00  0.00    -0.038 A 
HETATM   27  C   UNL     1       4.246   0.791   1.396  1.00  0.00     0.010 A 
HETATM   28  C   UNL     1       4.828   1.973   0.958  1.00  0.00     0.020 A 
HETATM   29  C   UNL     1       4.011   3.087   0.849  1.00  0.00     0.116 A 
HETATM   30  N   UNL     1       2.690   3.092   1.139  1.00  0.00    -0.273 NA
HETATM   31  C   UNL     1       2.160   1.928   1.561  1.00  0.00     0.123 A 
ENDBRANCH  25  26
ENDBRANCH  19  25
ENDBRANCH  16  19
ENDBRANCH   1  15
BRANCH  12  32
HETATM   32  C   UNL     1      -2.951  -4.399  -0.176  1.00  0.00     0.086 C 
HETATM   33  C   UNL     1      -3.287  -4.569   1.291  1.00  0.00     0.025 C 
HETATM   34  C   UNL     1      -3.763  -5.974   1.596  1.00  0.00     0.002 C 
HETATM   35  C   UNL     1      -4.569  -6.601   0.473  1.00  0.00     0.000 C 
HETATM   36  C   UNL     1      -5.193  -5.567  -0.435  1.00  0.00     0.002 C 
HETATM   37  C   UNL     1      -4.153  -4.665  -1.066  1.00  0.00     0.025 C 
ENDBRANCH  12  32
BRANCH   6  38
HETATM   38  C   UNL     1       0.253   4.660  -0.793  1.00  0.00     0.036 A 
HETATM   39  C   UNL     1       0.987   5.347  -1.758  1.00  0.00     0.029 A 
HETATM   40  C   UNL     1       1.370   6.668  -1.536  1.00  0.00     0.002 A 
HETATM   41  C   UNL     1       1.026   7.303  -0.346  1.00  0.00     0.000 A 
HETATM   42  C   UNL     1       0.296   6.618   0.621  1.00  0.00     0.002 A 
HETATM   43  C   UNL     1      -0.090   5.297   0.398  1.00  0.00     0.029 A 
ENDBRANCH   6  38
TORSDOF 7
