REMARK  7 active torsions:
REMARK  status: ('A' for Active; 'I' for Inactive)
REMARK       I    between atoms: C_2  and  N_3 
REMARK    1  A    between atoms: C_2  and  C_22 
REMARK    2  A    between atoms: N_3  and  C_4 
REMARK    3  A    between atoms: C_4  and  C_5 
REMARK    4  A    between atoms: C_4  and  C_12 
REMARK    5  A    between atoms: C_5  and  C_6 
REMARK       I    between atoms: C_12  and  N_14 
REMARK    6  A    between atoms: N_14  and  C_15 
REMARK       I    between atoms: N_25  and  C_26 
REMARK    7  A    between atoms: C_26  and  C_28 
ROOT
HETATM    1  C   UNL     1      -1.122   0.152  -1.234  1.00  0.00     0.181 C 
ENDROOT
BRANCH   1   2
HETATM    2  N   UNL     1       0.087  -0.526  -1.637  1.00  0.00    -0.347 N 
HETATM    3  C   UNL     1       0.877  -1.102  -0.667  1.00  0.00     0.222 C 
HETATM    4  O   UNL     1       0.633  -1.035   0.534  1.00  0.00    -0.273 OA
HETATM    5  H   UNL     1       0.342  -0.576  -2.586  1.00  0.00     0.163 HD
BRANCH   3   6
HETATM    6  C   UNL     1       2.068  -1.821  -1.252  1.00  0.00     0.081 C 
HETATM    7  C   UNL     1       2.825  -2.597  -0.194  1.00  0.00     0.034 C 
HETATM    8  C   UNL     1       3.645  -1.696   0.708  1.00  0.00     0.126 C 
HETATM    9  N   UNL     1       4.330  -0.652  -0.023  1.00  0.00    -0.350 N 
HETATM   10  C   UNL     1       5.184   0.243   0.601  1.00  0.00     0.253 C 
HETATM   11  C   UNL     1       4.340  -0.707  -1.465  1.00  0.00     0.126 C 
HETATM   12  O   UNL     1       5.845   1.064  -0.039  1.00  0.00    -0.271 OA
HETATM   13  C   UNL     1       2.945  -0.857  -2.028  1.00  0.00     0.034 C 
BRANCH  10  14
HETATM   14  C   UNL     1       5.223   0.158   2.127  1.00  0.00     0.311 C 
HETATM   15  C   UNL     1       5.913   1.373   2.707  1.00  0.00     0.047 C 
HETATM   16  C   UNL     1       6.900   0.850   3.723  1.00  0.00     0.033 C 
HETATM   17  C   UNL     1       6.647  -0.636   3.800  1.00  0.00     0.271 C 
HETATM   18  N   UNL     1       6.045  -0.992   2.524  1.00  0.00     0.097 N 
HETATM   19  H   UNL     1       5.463  -1.824   2.627  1.00  0.00     0.317 HD
ENDBRANCH  10  14
ENDBRANCH   3   6
ENDBRANCH   1   2
BRANCH   1  20
HETATM   20  C   UNL     1      -1.597   1.064  -2.345  1.00  0.00     0.073 C 
BRANCH  20  21
HETATM   21  C   UNL     1      -1.841   2.448  -1.841  1.00  0.00    -0.056 A 
HETATM   22  C   UNL     1      -0.773   3.315  -1.614  1.00  0.00     0.007 A 
HETATM   23  C   UNL     1      -1.010   4.612  -1.164  1.00  0.00     0.001 A 
HETATM   24  C   UNL     1      -2.314   5.046  -0.944  1.00  0.00     0.000 A 
HETATM   25  C   UNL     1      -3.383   4.184  -1.172  1.00  0.00     0.001 A 
HETATM   26  C   UNL     1      -3.146   2.888  -1.624  1.00  0.00     0.007 A 
ENDBRANCH  20  21
ENDBRANCH   1  20
BRANCH   1  27
HETATM   27  C   UNL     1      -2.221  -0.861  -0.958  1.00  0.00     0.245 C 
HETATM   28  O   UNL     1      -2.285  -1.958  -1.507  1.00  0.00    -0.271 OA
HETATM   29  N   UNL     1      -3.145  -0.326  -0.077  1.00  0.00    -0.325 N 
HETATM   30  H   UNL     1      -2.965   0.583   0.255  1.00  0.00     0.169 HD
BRANCH  29  31
HETATM   31  C   UNL     1      -4.310  -0.945   0.390  1.00  0.00     0.035 A 
HETATM   32  C   UNL     1      -4.688  -2.233   0.013  1.00  0.00     0.032 A 
HETATM   33  C   UNL     1      -5.859  -2.797   0.511  1.00  0.00     0.044 A 
HETATM   34  C   UNL     1      -6.646  -2.062   1.390  1.00  0.00     0.116 A 
HETATM   35  F   UNL     1      -7.775  -2.599   1.870  1.00  0.00    -0.206 F 
HETATM   36  C   UNL     1      -6.282  -0.777   1.774  1.00  0.00     0.044 A 
HETATM   37  C   UNL     1      -5.109  -0.219   1.272  1.00  0.00     0.032 A 
ENDBRANCH  29  31
ENDBRANCH   1  27
TORSDOF 7
