REMARK  9 active torsions:
REMARK  status: ('A' for Active; 'I' for Inactive)
REMARK    1  A    between atoms: N_3  and  C_17 
REMARK    2  A    between atoms: N_4  and  C_18 
REMARK       I    between atoms: N_5  and  C_19 
REMARK       I    between atoms: N_6  and  C_20 
REMARK       I    between atoms: N_7  and  C_19 
REMARK       I    between atoms: N_8  and  C_20 
REMARK       I    between atoms: N_9  and  C_21 
REMARK    3  A    between atoms: N_9  and  C_23 
REMARK       I    between atoms: N_10  and  C_22 
REMARK    4  A    between atoms: N_10  and  C_24 
REMARK       I    between atoms: N_11  and  C_21 
REMARK       I    between atoms: N_12  and  C_22 
REMARK    5  A    between atoms: C_13  and  C_14 
REMARK    6  A    between atoms: C_13  and  C_15 
REMARK    7  A    between atoms: C_14  and  C_16 
REMARK    8  A    between atoms: C_15  and  C_17 
REMARK    9  A    between atoms: C_16  and  C_18 
ROOT
HETATM    1  C   UNL     1       0.741  -3.339  -0.107  1.00  0.00     0.002 C 
ENDROOT
BRANCH   1   2
HETATM    2  C   UNL     1      -0.776  -3.353   0.099  1.00  0.00     0.002 C 
BRANCH   2   3
HETATM    3  C   UNL     1      -1.134  -3.344   1.588  1.00  0.00     0.022 C 
BRANCH   3   4
HETATM    4  C   UNL     1      -2.640  -3.371   1.826  1.00  0.00     0.169 C 
BRANCH   4   5
HETATM    5  N   UNL     1      -3.267  -2.202   1.208  1.00  0.00    -0.105 NA
HETATM    6  C   UNL     1      -4.547  -2.086   1.334  1.00  0.00     0.731 C 
HETATM    7  N   UNL     1      -5.075  -0.959   0.738  1.00  0.00     0.127 NA
HETATM    8  N   UNL     1      -5.404  -2.933   2.003  1.00  0.00    -0.231 N 
HETATM    9  C   UNL     1      -5.463  -1.040  -0.509  1.00  0.00     0.714 C 
HETATM   10  N   UNL     1      -6.007   0.010  -1.235  1.00  0.00    -0.190 N 
HETATM   11  N   UNL     1      -5.367  -2.170  -1.300  1.00  0.00    -0.232 N 
HETATM   12  H   UNL     1      -6.105  -0.136  -2.236  1.00  0.00     0.184 HD
HETATM   13  H   UNL     1      -5.691  -2.169  -2.262  1.00  0.00     0.174 HD
HETATM   14  H   UNL     1      -4.983  -3.041  -0.949  1.00  0.00     0.174 HD
HETATM   15  H   UNL     1      -6.398  -2.736   2.045  1.00  0.00     0.174 HD
HETATM   16  H   UNL     1      -5.082  -3.773   2.470  1.00  0.00     0.174 HD
BRANCH  10  17
HETATM   17  C   UNL     1      -6.265   1.342  -0.845  1.00  0.00     0.049 A 
HETATM   18  C   UNL     1      -6.591   1.629   0.481  1.00  0.00     0.032 A 
HETATM   19  C   UNL     1      -6.847   2.945   0.867  1.00  0.00     0.026 A 
HETATM   20  C   UNL     1      -6.778   3.973  -0.073  1.00  0.00     0.034 A 
HETATM   21 CL   UNL     1      -7.096   5.596   0.402  1.00  0.00    -0.084 Cl
HETATM   22  C   UNL     1      -6.453   3.686  -1.399  1.00  0.00     0.026 A 
HETATM   23  C   UNL     1      -6.196   2.370  -1.785  1.00  0.00     0.032 A 
ENDBRANCH  10  17
ENDBRANCH   4   5
ENDBRANCH   3   4
ENDBRANCH   2   3
ENDBRANCH   1   2
BRANCH   1  24
HETATM   24  C   UNL     1       1.099  -3.308  -1.596  1.00  0.00     0.022 C 
BRANCH  24  25
HETATM   25  C   UNL     1       2.604  -3.352  -1.835  1.00  0.00     0.169 C 
BRANCH  25  26
HETATM   26  N   UNL     1       3.243  -2.189  -1.215  1.00  0.00    -0.105 NA
HETATM   27  C   UNL     1       4.525  -2.089  -1.336  1.00  0.00     0.731 C 
HETATM   28  N   UNL     1       5.065  -0.968  -0.738  1.00  0.00     0.127 NA
HETATM   29  N   UNL     1       5.374  -2.948  -2.000  1.00  0.00    -0.231 N 
HETATM   30  C   UNL     1       5.446  -1.053   0.511  1.00  0.00     0.714 C 
HETATM   31  N   UNL     1       6.000  -0.009   1.238  1.00  0.00    -0.190 N 
HETATM   32  N   UNL     1       5.333  -2.182   1.303  1.00  0.00    -0.232 N 
HETATM   33  H   UNL     1       6.093  -0.157   2.240  1.00  0.00     0.184 HD
HETATM   34  H   UNL     1       5.653  -2.184   2.265  1.00  0.00     0.174 HD
HETATM   35  H   UNL     1       4.940  -3.047   0.950  1.00  0.00     0.174 HD
HETATM   36  H   UNL     1       6.371  -2.763  -2.039  1.00  0.00     0.174 HD
HETATM   37  H   UNL     1       5.044  -3.783  -2.469  1.00  0.00     0.174 HD
BRANCH  31  38
HETATM   38  C   UNL     1       6.277   1.318   0.848  1.00  0.00     0.049 A 
HETATM   39  C   UNL     1       6.612   1.600  -0.476  1.00  0.00     0.032 A 
HETATM   40  C   UNL     1       6.886   2.913  -0.862  1.00  0.00     0.026 A 
HETATM   41  C   UNL     1       6.826   3.942   0.077  1.00  0.00     0.034 A 
HETATM   42 CL   UNL     1       7.166   5.561  -0.399  1.00  0.00    -0.084 Cl
HETATM   43  C   UNL     1       6.491   3.660   1.401  1.00  0.00     0.026 A 
HETATM   44  C   UNL     1       6.216   2.349   1.787  1.00  0.00     0.032 A 
ENDBRANCH  31  38
ENDBRANCH  25  26
ENDBRANCH  24  25
ENDBRANCH   1  24
TORSDOF 9
