REMARK  9 active torsions:
REMARK  status: ('A' for Active; 'I' for Inactive)
REMARK    1  A    between atoms: O_3  and  N_5 
REMARK       I    between atoms: N_4  and  C_12 
REMARK    2  A    between atoms: N_4  and  C_14 
REMARK       I    between atoms: N_5  and  C_13 
REMARK    3  A    between atoms: C_6  and  C_7 
REMARK    4  A    between atoms: C_6  and  C_8 
REMARK    5  A    between atoms: C_7  and  C_9 
REMARK    6  A    between atoms: C_8  and  C_10 
REMARK    7  A    between atoms: C_9  and  C_11 
REMARK    8  A    between atoms: C_10  and  C_12 
REMARK    9  A    between atoms: C_11  and  C_13 
ROOT
HETATM    1  C   UNL     1       0.374   0.483  -0.145  1.00  0.00     0.009 C 
ENDROOT
BRANCH   1   2
HETATM    2  C   UNL     1       1.704  -0.261  -0.296  1.00  0.00     0.000 C 
BRANCH   2   3
HETATM    3  C   UNL     1       2.893   0.691  -0.136  1.00  0.00     0.000 C 
BRANCH   3   4
HETATM    4  C   UNL     1       4.223  -0.058  -0.256  1.00  0.00     0.009 C 
BRANCH   4   5
HETATM    5  C   UNL     1       5.429   0.862  -0.070  1.00  0.00     0.105 C 
BRANCH   5   6
HETATM    6  C   UNL     1       6.746   0.121  -0.173  1.00  0.00     0.240 C 
HETATM    7  O   UNL     1       7.327  -0.017  -1.248  1.00  0.00    -0.271 OA
HETATM    8  N   UNL     1       7.187  -0.358   1.034  1.00  0.00    -0.237 N 
HETATM    9  H   UNL     1       6.787  -0.160   1.944  1.00  0.00     0.197 HD
BRANCH   8  10
HETATM   10  O   UNL     1       8.400  -1.059   1.010  1.00  0.00    -0.287 OA
HETATM   11  H   UNL     1       8.070  -1.972   0.952  1.00  0.00     0.244 HD
ENDBRANCH   8  10
ENDBRANCH   5   6
ENDBRANCH   4   5
ENDBRANCH   3   4
ENDBRANCH   2   3
ENDBRANCH   1   2
BRANCH   1  12
HETATM   12  C   UNL     1      -0.831  -0.449  -0.265  1.00  0.00     0.103 C 
BRANCH  12  13
HETATM   13  C   UNL     1      -2.171   0.243  -0.047  1.00  0.00     0.222 C 
HETATM   14  O   UNL     1      -2.252   1.436   0.223  1.00  0.00    -0.273 OA
HETATM   15  N   UNL     1      -3.217  -0.667  -0.172  1.00  0.00    -0.327 N 
HETATM   16  H   UNL     1      -2.975  -1.633  -0.385  1.00  0.00     0.169 HD
BRANCH  15  17
HETATM   17  C   UNL     1      -4.603  -0.412  -0.040  1.00  0.00     0.034 A 
HETATM   18  C   UNL     1      -5.521  -1.451  -0.194  1.00  0.00     0.029 A 
HETATM   19  C   UNL     1      -6.886  -1.200  -0.063  1.00  0.00     0.002 A 
HETATM   20  C   UNL     1      -7.335   0.089   0.221  1.00  0.00     0.000 A 
HETATM   21  C   UNL     1      -6.417   1.129   0.374  1.00  0.00     0.002 A 
HETATM   22  C   UNL     1      -5.051   0.878   0.244  1.00  0.00     0.029 A 
ENDBRANCH  15  17
ENDBRANCH  12  13
ENDBRANCH   1  12
TORSDOF 9
