REMARK  8 active torsions:
REMARK  status: ('A' for Active; 'I' for Inactive)
REMARK    1  A    between atoms: P_1  and  O_2 
REMARK    2  A    between atoms: P_1  and  O_4 
REMARK    3  A    between atoms: P_1  and  O_5 
REMARK    4  A    between atoms: O_2  and  C_9 
REMARK    5  A    between atoms: O_3  and  C_12 
REMARK    6  A    between atoms: N_8  and  C_10 
REMARK    7  A    between atoms: C_9  and  C_10 
REMARK    8  A    between atoms: C_10  and  C_12 
ROOT
HETATM    1  C   UNK     1      -0.149  -0.715  -0.557  1.00  0.00     0.173 C 
HETATM    2  C   UNK     1       0.511  -2.084  -0.655  1.00  0.00     0.043 C 
ENDROOT
BRANCH   1   3
HETATM    3  O   UNK     1       0.573   0.050   0.407  1.00  0.00    -0.289 OA
BRANCH   3   4
HETATM    4  P   UNK     1       2.140   0.330   0.139  1.00  0.00     0.391 P 
HETATM    5  O   UNK     1       2.998  -0.896   0.029  1.00  0.00    -0.632 OA
BRANCH   4   6
HETATM    6  O   UNK     1       2.555   1.361   1.315  1.00  0.00    -0.307 OA
HETATM    7  H   UNK     1       3.493   1.636   1.396  1.00  0.00     0.222 HD
ENDBRANCH   4   6
BRANCH   4   8
HETATM    8  O   UNK     1       2.112   1.264  -1.181  1.00  0.00    -0.307 OA
HETATM    9  H   UNK     1       2.960   1.502  -1.612  1.00  0.00     0.222 HD
ENDBRANCH   4   8
ENDBRANCH   3   4
ENDBRANCH   1   3
BRANCH   1  10
HETATM   10  C   UNK     1      -1.640  -0.787  -0.192  1.00  0.00     0.343 C 
BRANCH  10  11
HETATM   11  N   UNK     1      -1.806  -1.434   1.114  1.00  0.00     0.095 N 
HETATM   12  H   UNK     1      -1.212  -0.973   1.803  1.00  0.00     0.314 HD
HETATM   13  H   UNK     1      -1.483  -2.399   1.066  1.00  0.00     0.314 HD
ENDBRANCH  10  11
BRANCH  10  14
HETATM   14  C   UNK     1      -2.282   0.587  -0.086  1.00  0.00     0.176 C 
HETATM   15  O   UNK     1      -2.763   1.064   0.934  1.00  0.00    -0.648 OA
BRANCH  14  16
HETATM   16  O   UNK     1      -2.250   1.261  -1.266  1.00  0.00    -0.775 OA
HETATM   17  H   UNK     1      -2.656   2.150  -1.189  1.00  0.00     0.167 HD
ENDBRANCH  14  16
ENDBRANCH  10  14
ENDBRANCH   1  10
TORSDOF 8
