REMARK  8 active torsions:
REMARK  status: ('A' for Active; 'I' for Inactive)
REMARK    1  A    between atoms: P_1  and  O_2 
REMARK    2  A    between atoms: P_1  and  O_3 
REMARK    3  A    between atoms: P_1  and  O_4 
REMARK    4  A    between atoms: O_2  and  C_10 
REMARK    5  A    between atoms: O_5  and  C_11 
REMARK    6  A    between atoms: N_8  and  C_9 
REMARK    7  A    between atoms: C_9  and  C_10 
REMARK    8  A    between atoms: C_9  and  C_11 
ROOT
HETATM    1  C   UNK     1      -1.565  -0.684   0.514  1.00  0.00     0.338 C 
ENDROOT
BRANCH   1   2
HETATM    2  N   UNK     1      -2.456  -1.743   0.108  1.00  0.00     0.095 N 
HETATM    3  H   UNK     1      -2.493  -1.812  -0.909  1.00  0.00     0.314 HD
HETATM    4  H   UNK     1      -3.406  -1.552   0.423  1.00  0.00     0.314 HD
ENDBRANCH   1   2
BRANCH   1   5
HETATM    5  C   UNK     1      -0.149  -0.915   0.009  1.00  0.00     0.227 C 
BRANCH   5   6
HETATM    6  O   UNK     1       0.672   0.178   0.402  1.00  0.00    -0.294 OA
BRANCH   6   7
HETATM    7  P   UNK     1       2.231   0.158  -0.023  1.00  0.00     0.390 P 
HETATM    8  O   UNK     1       3.029   1.345   0.430  1.00  0.00    -0.632 OA
BRANCH   7   9
HETATM    9  O   UNK     1       2.191  -0.079  -1.623  1.00  0.00    -0.307 OA
HETATM   10  H   UNK     1       3.033  -0.065  -2.126  1.00  0.00     0.222 HD
ENDBRANCH   7   9
BRANCH   7  11
HETATM   11  O   UNK     1       2.739  -1.266   0.550  1.00  0.00    -0.307 OA
HETATM   12  H   UNK     1       3.694  -1.485   0.500  1.00  0.00     0.222 HD
ENDBRANCH   7  11
ENDBRANCH   6   7
ENDBRANCH   5   6
ENDBRANCH   1   5
BRANCH   1  13
HETATM   13  C   UNK     1      -2.123   0.612  -0.038  1.00  0.00     0.176 C 
HETATM   14  O   UNK     1      -2.687   0.732  -1.118  1.00  0.00    -0.648 OA
BRANCH  13  15
HETATM   15  O   UNK     1      -1.883   1.662   0.790  1.00  0.00    -0.775 OA
HETATM   16  H   UNK     1      -2.224   2.504   0.421  1.00  0.00     0.167 HD
ENDBRANCH  13  15
ENDBRANCH   1  13
TORSDOF 8
