REMARK  4 active torsions:
REMARK  status: ('A' for Active; 'I' for Inactive)
REMARK    1  A    between atoms: N_2  and  C_8 
REMARK    2  A    between atoms: N_2  and  C_13 
REMARK    3  A    between atoms: N_5  and  C_10 
REMARK       I    between atoms: N_5  and  C_20 
REMARK    4  A    between atoms: C_20  and  C_21 
ROOT
HETATM    1  N   UNL     1       0.253   3.291   0.014  1.00  0.00    -0.241 NA
HETATM    2  N   UNL     1       2.140   1.818   0.289  1.00  0.00    -0.224 NA
HETATM    3  C   UNL     1      -0.102   0.923   0.159  1.00  0.00     0.041 A 
HETATM    4  C   UNL     1      -0.581   2.236   0.020  1.00  0.00     0.072 A 
HETATM    5  C   UNL     1       1.277   0.784   0.290  1.00  0.00     0.142 A 
HETATM    6  C   UNL     1      -0.983  -0.172   0.163  1.00  0.00     0.047 A 
HETATM    7  C   UNL     1      -2.352   0.036   0.028  1.00  0.00     0.036 A 
HETATM    8  C   UNL     1      -1.956   2.415  -0.114  1.00  0.00     0.035 A 
HETATM    9  C   UNL     1      -2.839   1.331  -0.111  1.00  0.00     0.032 A 
HETATM   10  C   UNL     1       1.568   3.024   0.149  1.00  0.00     0.236 A 
ENDROOT
BRANCH   5  11
HETATM   11  N   UNL     1       1.835  -0.510   0.435  1.00  0.00    -0.340 N 
HETATM   12  H   UNL     1       1.330  -1.104   1.085  1.00  0.00     0.167 HD
BRANCH  11  13
HETATM   13  C   UNL     1       3.124  -0.923   0.150  1.00  0.00     0.033 A 
HETATM   14  C   UNL     1       3.778  -1.871   0.961  1.00  0.00     0.029 A 
HETATM   15  C   UNL     1       5.078  -2.286   0.674  1.00  0.00     0.002 A 
HETATM   16  C   UNL     1       5.750  -1.762  -0.429  1.00  0.00     0.000 A 
HETATM   17  C   UNL     1       5.122  -0.822  -1.246  1.00  0.00     0.002 A 
HETATM   18  C   UNL     1       3.821  -0.406  -0.960  1.00  0.00     0.029 A 
ENDBRANCH  11  13
ENDBRANCH   5  11
BRANCH   7  19
HETATM   19  N   UNL     1      -3.231  -1.047   0.031  1.00  0.00    -0.324 N 
HETATM   20  C   UNL     1      -4.628  -1.026  -0.093  1.00  0.00     0.244 C 
HETATM   21  O   UNL     1      -5.343  -0.041  -0.228  1.00  0.00    -0.268 OA
HETATM   22  H   UNL     1      -2.787  -1.957   0.137  1.00  0.00     0.169 HD
BRANCH  20  23
HETATM   23  C   UNL     1      -5.205  -2.401  -0.041  1.00  0.00     0.064 C 
HETATM   24  C   UNL     1      -6.525  -2.588  -0.142  1.00  0.00     0.017 C 
ENDBRANCH  20  23
ENDBRANCH   7  19
TORSDOF 4
