REMARK  9 active torsions:
REMARK  status: ('A' for Active; 'I' for Inactive)
REMARK    1  A    between atoms: O_3  and  N_5 
REMARK       I    between atoms: N_4  and  C_13 
REMARK    2  A    between atoms: N_4  and  C_15 
REMARK       I    between atoms: N_5  and  C_14 
REMARK    3  A    between atoms: C_7  and  C_8 
REMARK    4  A    between atoms: C_7  and  C_9 
REMARK    5  A    between atoms: C_8  and  C_10 
REMARK    6  A    between atoms: C_9  and  C_11 
REMARK    7  A    between atoms: C_10  and  C_12 
REMARK    8  A    between atoms: C_11  and  C_13 
REMARK    9  A    between atoms: C_12  and  C_14 
ROOT
HETATM    1  C   UNL     1       0.369   0.476  -0.147  1.00  0.00     0.009 C 
ENDROOT
BRANCH   1   2
HETATM    2  C   UNL     1       1.701  -0.266  -0.297  1.00  0.00     0.000 C 
BRANCH   2   3
HETATM    3  C   UNL     1       2.888   0.688  -0.137  1.00  0.00     0.000 C 
BRANCH   3   4
HETATM    4  C   UNL     1       4.220  -0.058  -0.256  1.00  0.00     0.009 C 
BRANCH   4   5
HETATM    5  C   UNL     1       5.423   0.865  -0.071  1.00  0.00     0.105 C 
BRANCH   5   6
HETATM    6  C   UNL     1       6.742   0.127  -0.173  1.00  0.00     0.240 C 
HETATM    7  O   UNL     1       7.323  -0.011  -1.247  1.00  0.00    -0.271 OA
HETATM    8  N   UNL     1       7.183  -0.351   1.036  1.00  0.00    -0.237 N 
HETATM    9  H   UNL     1       6.783  -0.152   1.945  1.00  0.00     0.197 HD
BRANCH   8  10
HETATM   10  O   UNL     1       8.398  -1.049   1.012  1.00  0.00    -0.287 OA
HETATM   11  H   UNL     1       8.070  -1.962   0.955  1.00  0.00     0.244 HD
ENDBRANCH   8  10
ENDBRANCH   5   6
ENDBRANCH   4   5
ENDBRANCH   3   4
ENDBRANCH   2   3
ENDBRANCH   1   2
BRANCH   1  12
HETATM   12  C   UNL     1      -0.834  -0.459  -0.267  1.00  0.00     0.103 C 
BRANCH  12  13
HETATM   13  C   UNL     1      -2.175   0.230  -0.050  1.00  0.00     0.222 C 
HETATM   14  O   UNL     1      -2.259   1.424   0.219  1.00  0.00    -0.273 OA
HETATM   15  N   UNL     1      -3.219  -0.683  -0.174  1.00  0.00    -0.326 N 
HETATM   16  H   UNL     1      -2.976  -1.648  -0.386  1.00  0.00     0.169 HD
BRANCH  15  17
HETATM   17  C   UNL     1      -4.606  -0.430  -0.043  1.00  0.00     0.052 A 
HETATM   18  C   UNL     1      -5.537  -1.452  -0.191  1.00  0.00     0.032 A 
HETATM   19  C   UNL     1      -6.893  -1.174  -0.055  1.00  0.00     0.021 A 
HETATM   20  C   UNL     1      -7.262   0.132   0.226  1.00  0.00     0.116 A 
HETATM   21  N   UNL     1      -6.386   1.150   0.376  1.00  0.00    -0.271 NA
HETATM   22  C   UNL     1      -5.077   0.842   0.238  1.00  0.00     0.145 A 
ENDBRANCH  15  17
ENDBRANCH  12  13
ENDBRANCH   1  12
TORSDOF 9
