REMARK  5 active torsions:
REMARK  status: ('A' for Active; 'I' for Inactive)
REMARK    1  A    between atoms: SG_1  and  CB_6 
REMARK    2  A    between atoms: O_2  and  C_7 
REMARK    3  A    between atoms: N_4  and  CA_5 
REMARK       I    between atoms: N_4  and  C_12 
REMARK    4  A    between atoms: CA_5  and  CB_6 
REMARK    5  A    between atoms: CA_5  and  C_7 
ROOT
ATOM      1  CA  CYS A   1      -0.411   0.070   0.503  1.00  0.00     0.191 C 
ENDROOT
BRANCH   1   2
ATOM      2  N   CYS A   1       0.732  -0.177  -0.341  1.00  0.00    -0.346 N 
HETATM    3  C   UNK A   0       2.040  -0.116   0.114  1.00  0.00     0.214 C 
HETATM    4  O   UNK A   0       2.390   0.147   1.262  1.00  0.00    -0.274 OA
HETATM    5  C   UNK A   0       3.037  -0.441  -0.966  1.00  0.00     0.117 C 
ATOM      6  H   CYS A   1       0.562  -0.393  -1.319  1.00  0.00     0.163 HD
ENDBRANCH   1   2
BRANCH   1   7
ATOM      7  CB  CYS A   1      -0.783   1.554   0.544  1.00  0.00     0.106 C 
BRANCH   7   8
ATOM      8  SG  CYS A   1      -1.408   2.198  -1.044  1.00  0.00    -0.180 SA
ATOM      9  HG  CYS A   1      -2.527   1.460  -1.088  1.00  0.00     0.101 HD
ENDBRANCH   7   8
ENDBRANCH   1   7
BRANCH   1  10
ATOM     10  C   CYS A   1      -1.591  -0.813   0.132  1.00  0.00     0.164 C 
ATOM     11  OXT CYS A   1      -2.636  -0.856   0.769  1.00  0.00    -0.648 OA
BRANCH  10  12
ATOM     12  O   CYS A   1      -1.370  -1.565  -0.973  1.00  0.00    -0.775 OA
ATOM     13  H   CYS A   1      -2.141  -2.132  -1.191  1.00  0.00     0.167 HD
ENDBRANCH  10  12
ENDBRANCH   1  10
TORSDOF 5
